* NGSPICE file created from digital_pll.ext - technology: sky130A

* Black-box entry subcircuit for sky130_fd_sc_hd__decap_12 abstract view
.subckt sky130_fd_sc_hd__decap_12 VGND VNB VPB VPWR
.ends

* Black-box entry subcircuit for sky130_fd_sc_hd__clkbuf_1 abstract view
.subckt sky130_fd_sc_hd__clkbuf_1 A VGND VNB VPB VPWR X
.ends

* Black-box entry subcircuit for sky130_fd_sc_hd__clkinv_1 abstract view
.subckt sky130_fd_sc_hd__clkinv_1 A VGND VNB VPB VPWR Y
.ends

* Black-box entry subcircuit for sky130_fd_sc_hd__fill_2 abstract view
.subckt sky130_fd_sc_hd__fill_2 VGND VNB VPB VPWR
.ends

* Black-box entry subcircuit for sky130_fd_sc_hd__o31a_1 abstract view
.subckt sky130_fd_sc_hd__o31a_1 A1 A2 A3 B1 VGND VNB VPB VPWR X
.ends

* Black-box entry subcircuit for sky130_fd_sc_hd__and4_1 abstract view
.subckt sky130_fd_sc_hd__and4_1 A B C D VGND VNB VPB VPWR X
.ends

* Black-box entry subcircuit for sky130_fd_sc_hd__fill_1 abstract view
.subckt sky130_fd_sc_hd__fill_1 VGND VNB VPB VPWR
.ends

* Black-box entry subcircuit for sky130_fd_sc_hd__decap_4 abstract view
.subckt sky130_fd_sc_hd__decap_4 VGND VNB VPB VPWR
.ends

* Black-box entry subcircuit for sky130_fd_sc_hd__einvp_2 abstract view
.subckt sky130_fd_sc_hd__einvp_2 A TE VGND VNB VPB VPWR Z
.ends

* Black-box entry subcircuit for sky130_fd_sc_hd__einvn_2 abstract view
.subckt sky130_fd_sc_hd__einvn_2 A TE_B VGND VNB VPB VPWR Z
.ends

* Black-box entry subcircuit for sky130_fd_sc_hd__decap_6 abstract view
.subckt sky130_fd_sc_hd__decap_6 VGND VNB VPB VPWR
.ends

* Black-box entry subcircuit for sky130_fd_sc_hd__and3_1 abstract view
.subckt sky130_fd_sc_hd__and3_1 A B C VGND VNB VPB VPWR X
.ends

* Black-box entry subcircuit for sky130_fd_sc_hd__o41a_1 abstract view
.subckt sky130_fd_sc_hd__o41a_1 A1 A2 A3 A4 B1 VGND VNB VPB VPWR X
.ends

* Black-box entry subcircuit for sky130_fd_sc_hd__clkbuf_2 abstract view
.subckt sky130_fd_sc_hd__clkbuf_2 A VGND VNB VPB VPWR X
.ends

* Black-box entry subcircuit for sky130_fd_sc_hd__decap_8 abstract view
.subckt sky130_fd_sc_hd__decap_8 VGND VNB VPB VPWR
.ends

* Black-box entry subcircuit for sky130_fd_sc_hd__nor2_2 abstract view
.subckt sky130_fd_sc_hd__nor2_2 A B VGND VNB VPB VPWR Y
.ends

* Black-box entry subcircuit for sky130_fd_sc_hd__decap_3 abstract view
.subckt sky130_fd_sc_hd__decap_3 VGND VNB VPB VPWR
.ends

* Black-box entry subcircuit for sky130_fd_sc_hd__einvp_1 abstract view
.subckt sky130_fd_sc_hd__einvp_1 A TE VGND VNB VPB VPWR Z
.ends

* Black-box entry subcircuit for sky130_fd_sc_hd__o21a_2 abstract view
.subckt sky130_fd_sc_hd__o21a_2 A1 A2 B1 VGND VNB VPB VPWR X
.ends

* Black-box entry subcircuit for sky130_fd_sc_hd__a21bo_1 abstract view
.subckt sky130_fd_sc_hd__a21bo_1 A1 A2 B1_N VGND VNB VPB VPWR X
.ends

* Black-box entry subcircuit for sky130_fd_sc_hd__einvn_4 abstract view
.subckt sky130_fd_sc_hd__einvn_4 A TE_B VGND VNB VPB VPWR Z
.ends

* Black-box entry subcircuit for sky130_fd_sc_hd__dfrtp_1 abstract view
.subckt sky130_fd_sc_hd__dfrtp_1 CLK D RESET_B VGND VNB VPB VPWR Q
.ends

* Black-box entry subcircuit for sky130_fd_sc_hd__or2_1 abstract view
.subckt sky130_fd_sc_hd__or2_1 A B VGND VNB VPB VPWR X
.ends

* Black-box entry subcircuit for sky130_fd_sc_hd__dfrtp_4 abstract view
.subckt sky130_fd_sc_hd__dfrtp_4 CLK D RESET_B VGND VNB VPB VPWR Q
.ends

* Black-box entry subcircuit for sky130_fd_sc_hd__and2_1 abstract view
.subckt sky130_fd_sc_hd__and2_1 A B VGND VNB VPB VPWR X
.ends

* Black-box entry subcircuit for sky130_fd_sc_hd__o2bb2a_1 abstract view
.subckt sky130_fd_sc_hd__o2bb2a_1 A1_N A2_N B1 B2 VGND VNB VPB VPWR X
.ends

* Black-box entry subcircuit for sky130_fd_sc_hd__o22ai_1 abstract view
.subckt sky130_fd_sc_hd__o22ai_1 A1 A2 B1 B2 VGND VNB VPB VPWR Y
.ends

* Black-box entry subcircuit for sky130_fd_sc_hd__dfrtp_2 abstract view
.subckt sky130_fd_sc_hd__dfrtp_2 CLK D RESET_B VGND VNB VPB VPWR Q
.ends

* Black-box entry subcircuit for sky130_fd_sc_hd__o311a_1 abstract view
.subckt sky130_fd_sc_hd__o311a_1 A1 A2 A3 B1 C1 VGND VNB VPB VPWR X
.ends

* Black-box entry subcircuit for sky130_fd_sc_hd__a22o_1 abstract view
.subckt sky130_fd_sc_hd__a22o_1 A1 A2 B1 B2 VGND VNB VPB VPWR X
.ends

* Black-box entry subcircuit for sky130_fd_sc_hd__a2bb2o_1 abstract view
.subckt sky130_fd_sc_hd__a2bb2o_1 A1_N A2_N B1 B2 VGND VNB VPB VPWR X
.ends

* Black-box entry subcircuit for sky130_fd_sc_hd__tapvpwrvgnd_1 abstract view
.subckt sky130_fd_sc_hd__tapvpwrvgnd_1 VGND VPWR
.ends

* Black-box entry subcircuit for sky130_fd_sc_hd__or4_4 abstract view
.subckt sky130_fd_sc_hd__or4_4 A B C D VGND VNB VPB VPWR X
.ends

* Black-box entry subcircuit for sky130_fd_sc_hd__or2_4 abstract view
.subckt sky130_fd_sc_hd__or2_4 A B VGND VNB VPB VPWR X
.ends

* Black-box entry subcircuit for sky130_fd_sc_hd__a21oi_1 abstract view
.subckt sky130_fd_sc_hd__a21oi_1 A1 A2 B1 VGND VNB VPB VPWR Y
.ends

* Black-box entry subcircuit for sky130_fd_sc_hd__a32o_1 abstract view
.subckt sky130_fd_sc_hd__a32o_1 A1 A2 A3 B1 B2 VGND VNB VPB VPWR X
.ends

* Black-box entry subcircuit for sky130_fd_sc_hd__o41a_2 abstract view
.subckt sky130_fd_sc_hd__o41a_2 A1 A2 A3 A4 B1 VGND VNB VPB VPWR X
.ends

* Black-box entry subcircuit for sky130_fd_sc_hd__o221a_1 abstract view
.subckt sky130_fd_sc_hd__o221a_1 A1 A2 B1 B2 C1 VGND VNB VPB VPWR X
.ends

* Black-box entry subcircuit for sky130_fd_sc_hd__nand2_1 abstract view
.subckt sky130_fd_sc_hd__nand2_1 A B VGND VNB VPB VPWR Y
.ends

* Black-box entry subcircuit for sky130_fd_sc_hd__nor2_4 abstract view
.subckt sky130_fd_sc_hd__nor2_4 A B VGND VNB VPB VPWR Y
.ends

* Black-box entry subcircuit for sky130_fd_sc_hd__o32a_1 abstract view
.subckt sky130_fd_sc_hd__o32a_1 A1 A2 A3 B1 B2 VGND VNB VPB VPWR X
.ends

* Black-box entry subcircuit for sky130_fd_sc_hd__inv_2 abstract view
.subckt sky130_fd_sc_hd__inv_2 A VGND VNB VPB VPWR Y
.ends

* Black-box entry subcircuit for sky130_fd_sc_hd__nor2_1 abstract view
.subckt sky130_fd_sc_hd__nor2_1 A B VGND VNB VPB VPWR Y
.ends

* Black-box entry subcircuit for sky130_fd_sc_hd__a311o_1 abstract view
.subckt sky130_fd_sc_hd__a311o_1 A1 A2 A3 B1 C1 VGND VNB VPB VPWR X
.ends

* Black-box entry subcircuit for sky130_fd_sc_hd__a21oi_4 abstract view
.subckt sky130_fd_sc_hd__a21oi_4 A1 A2 B1 VGND VNB VPB VPWR Y
.ends

* Black-box entry subcircuit for sky130_fd_sc_hd__mux2_1 abstract view
.subckt sky130_fd_sc_hd__mux2_1 A0 A1 S VGND VNB VPB VPWR X
.ends

* Black-box entry subcircuit for sky130_fd_sc_hd__o211a_1 abstract view
.subckt sky130_fd_sc_hd__o211a_1 A1 A2 B1 C1 VGND VNB VPB VPWR X
.ends

* Black-box entry subcircuit for sky130_fd_sc_hd__a21o_1 abstract view
.subckt sky130_fd_sc_hd__a21o_1 A1 A2 B1 VGND VNB VPB VPWR X
.ends

* Black-box entry subcircuit for sky130_fd_sc_hd__einvp_4 abstract view
.subckt sky130_fd_sc_hd__einvp_4 A TE VGND VNB VPB VPWR Z
.ends

* Black-box entry subcircuit for sky130_fd_sc_hd__o22a_1 abstract view
.subckt sky130_fd_sc_hd__o22a_1 A1 A2 B1 B2 VGND VNB VPB VPWR X
.ends

* Black-box entry subcircuit for sky130_fd_sc_hd__o2bb2ai_1 abstract view
.subckt sky130_fd_sc_hd__o2bb2ai_1 A1_N A2_N B1 B2 VGND VNB VPB VPWR Y
.ends

* Black-box entry subcircuit for sky130_fd_sc_hd__buf_1 abstract view
.subckt sky130_fd_sc_hd__buf_1 A VGND VNB VPB VPWR X
.ends

* Black-box entry subcircuit for sky130_fd_sc_hd__clkinv_4 abstract view
.subckt sky130_fd_sc_hd__clkinv_4 A VGND VNB VPB VPWR Y
.ends

* Black-box entry subcircuit for sky130_fd_sc_hd__or3_2 abstract view
.subckt sky130_fd_sc_hd__or3_2 A B C VGND VNB VPB VPWR X
.ends

* Black-box entry subcircuit for sky130_fd_sc_hd__o2111ai_4 abstract view
.subckt sky130_fd_sc_hd__o2111ai_4 A1 A2 B1 C1 D1 VGND VNB VPB VPWR Y
.ends

* Black-box entry subcircuit for sky130_fd_sc_hd__or3_1 abstract view
.subckt sky130_fd_sc_hd__or3_1 A B C VGND VNB VPB VPWR X
.ends

* Black-box entry subcircuit for sky130_fd_sc_hd__nand2_2 abstract view
.subckt sky130_fd_sc_hd__nand2_2 A B VGND VNB VPB VPWR Y
.ends

* Black-box entry subcircuit for sky130_fd_sc_hd__or3_4 abstract view
.subckt sky130_fd_sc_hd__or3_4 A B C VGND VNB VPB VPWR X
.ends

* Black-box entry subcircuit for sky130_fd_sc_hd__a31o_1 abstract view
.subckt sky130_fd_sc_hd__a31o_1 A1 A2 A3 B1 VGND VNB VPB VPWR X
.ends

* Black-box entry subcircuit for sky130_fd_sc_hd__clkinv_2 abstract view
.subckt sky130_fd_sc_hd__clkinv_2 A VGND VNB VPB VPWR Y
.ends

* Black-box entry subcircuit for sky130_fd_sc_hd__o21ai_1 abstract view
.subckt sky130_fd_sc_hd__o21ai_1 A1 A2 B1 VGND VNB VPB VPWR Y
.ends

* Black-box entry subcircuit for sky130_fd_sc_hd__inv_1 abstract view
.subckt sky130_fd_sc_hd__inv_1 A VGND VNB VPB VPWR Y
.ends

* Black-box entry subcircuit for sky130_fd_sc_hd__a221o_1 abstract view
.subckt sky130_fd_sc_hd__a221o_1 A1 A2 B1 B2 C1 VGND VNB VPB VPWR X
.ends

* Black-box entry subcircuit for sky130_fd_sc_hd__o221ai_2 abstract view
.subckt sky130_fd_sc_hd__o221ai_2 A1 A2 B1 B2 C1 VGND VNB VPB VPWR Y
.ends

* Black-box entry subcircuit for sky130_fd_sc_hd__a22oi_2 abstract view
.subckt sky130_fd_sc_hd__a22oi_2 A1 A2 B1 B2 VGND VNB VPB VPWR Y
.ends

* Black-box entry subcircuit for sky130_fd_sc_hd__clkinv_8 abstract view
.subckt sky130_fd_sc_hd__clkinv_8 A VGND VNB VPB VPWR Y
.ends

* Black-box entry subcircuit for sky130_fd_sc_hd__einvn_8 abstract view
.subckt sky130_fd_sc_hd__einvn_8 A TE_B VGND VNB VPB VPWR Z
.ends

* Black-box entry subcircuit for sky130_fd_sc_hd__o31a_4 abstract view
.subckt sky130_fd_sc_hd__o31a_4 A1 A2 A3 B1 VGND VNB VPB VPWR X
.ends

* Black-box entry subcircuit for sky130_fd_sc_hd__conb_1 abstract view
.subckt sky130_fd_sc_hd__conb_1 VGND VNB VPB VPWR HI LO
.ends

* Black-box entry subcircuit for sky130_fd_sc_hd__nand2_4 abstract view
.subckt sky130_fd_sc_hd__nand2_4 A B VGND VNB VPB VPWR Y
.ends

* Black-box entry subcircuit for sky130_fd_sc_hd__buf_2 abstract view
.subckt sky130_fd_sc_hd__buf_2 A VGND VNB VPB VPWR X
.ends

* Black-box entry subcircuit for sky130_fd_sc_hd__or2_2 abstract view
.subckt sky130_fd_sc_hd__or2_2 A B VGND VNB VPB VPWR X
.ends

* Black-box entry subcircuit for sky130_fd_sc_hd__a2bb2o_4 abstract view
.subckt sky130_fd_sc_hd__a2bb2o_4 A1_N A2_N B1 B2 VGND VNB VPB VPWR X
.ends

* Black-box entry subcircuit for sky130_fd_sc_hd__einvp_8 abstract view
.subckt sky130_fd_sc_hd__einvp_8 A TE VGND VNB VPB VPWR Z
.ends

.subckt digital_pll clockp[0] clockp[1] div[0] div[1] div[2] div[3] div[4] enable
+ osc resetb VPWR VGND
XFILLER_26_30 VGND VGND VPWR VPWR sky130_fd_sc_hd__decap_12
X_294_ _301_/A VGND VGND VPWR VPWR _294_/X sky130_fd_sc_hd__clkbuf_1
XFILLER_9_115 VGND VGND VPWR VPWR sky130_fd_sc_hd__decap_12
Xringosc.dstage\[1\].id.delayint0 ringosc.dstage\[1\].id.delayen1/Z VGND VGND VPWR
+ VPWR ringosc.dstage\[1\].id.delayen0/A sky130_fd_sc_hd__clkinv_1
XFILLER_6_107 VGND VGND VPWR VPWR sky130_fd_sc_hd__fill_2
X_277_ _271_/A _316_/Q _315_/Q _276_/X VGND VGND VPWR VPWR _277_/X sky130_fd_sc_hd__o31a_1
X_200_ _325_/Q _200_/B _326_/Q _324_/Q VGND VGND VPWR VPWR _200_/X sky130_fd_sc_hd__and4_1
XFILLER_0_57 VGND VGND VPWR VPWR sky130_fd_sc_hd__fill_1
XFILLER_0_24 VGND VGND VPWR VPWR sky130_fd_sc_hd__decap_4
Xringosc.dstage\[11\].id.delayen1 ringosc.dstage\[11\].id.delayen1/A _276_/X VGND
+ VGND VPWR VPWR ringosc.dstage\[11\].id.delayen1/Z sky130_fd_sc_hd__einvp_2
Xringosc.dstage\[10\].id.delayenb0 ringosc.dstage\[10\].id.delayenb1/A _262_/X VGND
+ VGND VPWR VPWR ringosc.dstage\[10\].id.delayen0/Z sky130_fd_sc_hd__einvn_2
Xringosc.dstage\[9\].id.delayenb0 ringosc.dstage\[9\].id.delayenb1/A _259_/X VGND
+ VGND VPWR VPWR ringosc.dstage\[9\].id.delayen0/Z sky130_fd_sc_hd__einvn_2
XFILLER_6_23 VGND VGND VPWR VPWR sky130_fd_sc_hd__decap_6
XFILLER_17_109 VGND VGND VPWR VPWR sky130_fd_sc_hd__decap_4
XFILLER_26_42 VGND VGND VPWR VPWR sky130_fd_sc_hd__fill_1
XFILLER_13_156 VGND VGND VPWR VPWR sky130_fd_sc_hd__decap_4
X_293_ _301_/A VGND VGND VPWR VPWR _293_/X sky130_fd_sc_hd__clkbuf_1
XFILLER_3_24 VGND VGND VPWR VPWR sky130_fd_sc_hd__decap_12
XFILLER_3_68 VGND VGND VPWR VPWR sky130_fd_sc_hd__decap_12
XFILLER_9_127 VGND VGND VPWR VPWR sky130_fd_sc_hd__decap_12
XFILLER_10_115 VGND VGND VPWR VPWR sky130_fd_sc_hd__fill_1
XFILLER_10_137 VGND VGND VPWR VPWR sky130_fd_sc_hd__decap_6
XFILLER_10_159 VGND VGND VPWR VPWR sky130_fd_sc_hd__fill_1
X_276_ _318_/Q _276_/B _276_/C VGND VGND VPWR VPWR _276_/X sky130_fd_sc_hd__and3_1
XFILLER_23_65 VGND VGND VPWR VPWR sky130_fd_sc_hd__decap_12
X_259_ _271_/A _316_/Q _318_/Q _271_/C _258_/X VGND VGND VPWR VPWR _259_/X sky130_fd_sc_hd__o41a_1
XFILLER_2_144 VGND VGND VPWR VPWR sky130_fd_sc_hd__decap_12
XFILLER_20_77 VGND VGND VPWR VPWR sky130_fd_sc_hd__decap_4
Xringosc.dstage\[9\].id.delayenb1 ringosc.dstage\[9\].id.delayenb1/A _270_/X VGND
+ VGND VPWR VPWR ringosc.dstage\[9\].id.delayen1/Z sky130_fd_sc_hd__einvn_2
Xringosc.dstage\[10\].id.delayenb1 ringosc.dstage\[10\].id.delayenb1/A _300_/X VGND
+ VGND VPWR VPWR ringosc.dstage\[10\].id.delayen1/Z sky130_fd_sc_hd__einvn_2
Xoutput10 output10/A VGND VGND VPWR VPWR clockp[1] sky130_fd_sc_hd__clkbuf_2
XFILLER_16_121 VGND VGND VPWR VPWR sky130_fd_sc_hd__decap_12
X_292_ _301_/A VGND VGND VPWR VPWR _292_/X sky130_fd_sc_hd__clkbuf_1
XFILLER_9_106 VGND VGND VPWR VPWR sky130_fd_sc_hd__fill_2
XFILLER_9_139 VGND VGND VPWR VPWR sky130_fd_sc_hd__fill_1
XFILLER_3_36 VGND VGND VPWR VPWR sky130_fd_sc_hd__decap_8
XFILLER_3_58 VGND VGND VPWR VPWR sky130_fd_sc_hd__decap_6
XFILLER_12_23 VGND VGND VPWR VPWR sky130_fd_sc_hd__decap_6
X_275_ _275_/A _275_/B VGND VGND VPWR VPWR _275_/Y sky130_fd_sc_hd__nor2_2
XFILLER_23_77 VGND VGND VPWR VPWR sky130_fd_sc_hd__decap_3
Xringosc.dstage\[4\].id.delayen0 ringosc.dstage\[4\].id.delayen0/A _260_/X VGND VGND
+ VPWR VPWR ringosc.dstage\[4\].id.delayen0/Z sky130_fd_sc_hd__einvp_1
XFILLER_2_156 VGND VGND VPWR VPWR sky130_fd_sc_hd__decap_4
XFILLER_0_59 VGND VGND VPWR VPWR sky130_fd_sc_hd__fill_1
X_258_ _318_/Q _276_/C _262_/B VGND VGND VPWR VPWR _258_/X sky130_fd_sc_hd__o21a_2
X_189_ _188_/A _188_/B _188_/X VGND VGND VPWR VPWR _190_/B sky130_fd_sc_hd__a21bo_1
XFILLER_9_46 VGND VGND VPWR VPWR sky130_fd_sc_hd__decap_8
XFILLER_16_144 VGND VGND VPWR VPWR sky130_fd_sc_hd__decap_8
XFILLER_16_133 VGND VGND VPWR VPWR sky130_fd_sc_hd__decap_8
XFILLER_15_12 VGND VGND VPWR VPWR sky130_fd_sc_hd__decap_4
Xoutput9 _302_/X VGND VGND VPWR VPWR clockp[0] sky130_fd_sc_hd__clkbuf_2
Xringosc.dstage\[5\].id.delayenb0 ringosc.dstage\[5\].id.delayenb1/A _257_/X VGND
+ VGND VPWR VPWR ringosc.ibufp10/A sky130_fd_sc_hd__einvn_4
XFILLER_22_147 VGND VGND VPWR VPWR sky130_fd_sc_hd__decap_12
Xringosc.dstage\[9\].id.delaybuf0 ringosc.dstage\[8\].id.delayen0/Z VGND VGND VPWR
+ VPWR ringosc.dstage\[9\].id.delayenb1/A sky130_fd_sc_hd__clkbuf_2
Xringosc.dstage\[10\].id.delaybuf0 ringosc.dstage\[9\].id.delayen0/Z VGND VGND VPWR
+ VPWR ringosc.dstage\[10\].id.delayenb1/A sky130_fd_sc_hd__clkbuf_2
XFILLER_26_88 VGND VGND VPWR VPWR sky130_fd_sc_hd__decap_12
XFILLER_13_103 VGND VGND VPWR VPWR sky130_fd_sc_hd__decap_3
X_291_ _301_/A VGND VGND VPWR VPWR _291_/X sky130_fd_sc_hd__clkbuf_1
XFILLER_8_140 VGND VGND VPWR VPWR sky130_fd_sc_hd__decap_3
X_274_ _195_/A _314_/Q _275_/A _276_/C _270_/X VGND VGND VPWR VPWR _274_/X sky130_fd_sc_hd__o41a_1
XFILLER_5_132 VGND VGND VPWR VPWR sky130_fd_sc_hd__decap_6
Xringosc.dstage\[4\].id.delayen1 ringosc.dstage\[4\].id.delayen1/A _274_/X VGND VGND
+ VPWR VPWR ringosc.dstage\[4\].id.delayen1/Z sky130_fd_sc_hd__einvp_1
X_257_ _318_/Q _276_/C _262_/A _262_/B VGND VGND VPWR VPWR _257_/X sky130_fd_sc_hd__o31a_1
X_326_ _302_/A _326_/D _301_/X VGND VGND VPWR VPWR _326_/Q sky130_fd_sc_hd__dfrtp_1
XFILLER_9_58 VGND VGND VPWR VPWR sky130_fd_sc_hd__decap_12
X_188_ _188_/A _188_/B VGND VGND VPWR VPWR _188_/X sky130_fd_sc_hd__or2_1
X_309_ _302_/A _309_/D _294_/X VGND VGND VPWR VPWR _309_/Q sky130_fd_sc_hd__dfrtp_4
XFILLER_6_37 VGND VGND VPWR VPWR sky130_fd_sc_hd__decap_12
XFILLER_13_6 VGND VGND VPWR VPWR sky130_fd_sc_hd__decap_4
XFILLER_25_123 VGND VGND VPWR VPWR sky130_fd_sc_hd__fill_2
Xringosc.dstage\[5\].id.delayenb1 ringosc.dstage\[5\].id.delayenb1/A _275_/Y VGND
+ VGND VPWR VPWR ringosc.dstage\[5\].id.delayen1/Z sky130_fd_sc_hd__einvn_2
XFILLER_16_156 VGND VGND VPWR VPWR sky130_fd_sc_hd__decap_4
Xringosc.dstage\[9\].id.delaybuf1 ringosc.dstage\[9\].id.delayenb1/A VGND VGND VPWR
+ VPWR ringosc.dstage\[9\].id.delayen1/A sky130_fd_sc_hd__clkbuf_1
XFILLER_11_3 VGND VGND VPWR VPWR sky130_fd_sc_hd__decap_8
Xringosc.dstage\[10\].id.delaybuf1 ringosc.dstage\[10\].id.delayenb1/A VGND VGND VPWR
+ VPWR ringosc.dstage\[10\].id.delayen1/A sky130_fd_sc_hd__clkbuf_1
XFILLER_22_159 VGND VGND VPWR VPWR sky130_fd_sc_hd__fill_1
XFILLER_22_137 VGND VGND VPWR VPWR sky130_fd_sc_hd__decap_6
XFILLER_22_115 VGND VGND VPWR VPWR sky130_fd_sc_hd__decap_12
XFILLER_13_115 VGND VGND VPWR VPWR sky130_fd_sc_hd__decap_12
XFILLER_7_91 VGND VGND VPWR VPWR sky130_fd_sc_hd__fill_1
X_290_ _301_/A VGND VGND VPWR VPWR _290_/X sky130_fd_sc_hd__clkbuf_1
XFILLER_10_107 VGND VGND VPWR VPWR sky130_fd_sc_hd__decap_8
XFILLER_12_36 VGND VGND VPWR VPWR sky130_fd_sc_hd__fill_1
X_273_ _303_/X _273_/B VGND VGND VPWR VPWR _273_/X sky130_fd_sc_hd__and2_1
XFILLER_12_47 VGND VGND VPWR VPWR sky130_fd_sc_hd__decap_3
XFILLER_12_58 VGND VGND VPWR VPWR sky130_fd_sc_hd__decap_12
X_256_ _318_/Q _276_/C _315_/Q _262_/B VGND VGND VPWR VPWR _256_/X sky130_fd_sc_hd__o31a_1
X_325_ _302_/A _325_/D _301_/A VGND VGND VPWR VPWR _325_/Q sky130_fd_sc_hd__dfrtp_1
XFILLER_0_28 VGND VGND VPWR VPWR sky130_fd_sc_hd__fill_1
X_187_ _310_/Q _322_/Q _164_/Y _171_/X VGND VGND VPWR VPWR _188_/B sky130_fd_sc_hd__o2bb2a_1
XFILLER_18_57 VGND VGND VPWR VPWR sky130_fd_sc_hd__fill_1
XFILLER_18_24 VGND VGND VPWR VPWR sky130_fd_sc_hd__fill_2
X_239_ _198_/A _210_/A _210_/Y _238_/X VGND VGND VPWR VPWR _313_/D sky130_fd_sc_hd__o22ai_1
X_308_ _302_/A _308_/D _295_/X VGND VGND VPWR VPWR _308_/Q sky130_fd_sc_hd__dfrtp_2
XFILLER_6_49 VGND VGND VPWR VPWR sky130_fd_sc_hd__decap_6
XFILLER_25_135 VGND VGND VPWR VPWR sky130_fd_sc_hd__fill_2
XFILLER_15_58 VGND VGND VPWR VPWR sky130_fd_sc_hd__decap_12
XFILLER_26_46 VGND VGND VPWR VPWR sky130_fd_sc_hd__decap_12
XFILLER_13_127 VGND VGND VPWR VPWR sky130_fd_sc_hd__decap_12
Xringosc.dstage\[5\].id.delaybuf0 ringosc.dstage\[4\].id.delayen0/Z VGND VGND VPWR
+ VPWR ringosc.dstage\[5\].id.delayenb1/A sky130_fd_sc_hd__clkbuf_2
X_272_ _275_/A _276_/C _195_/A _271_/X _270_/X VGND VGND VPWR VPWR _272_/X sky130_fd_sc_hd__o311a_1
Xringosc.dstage\[1\].id.delayenb0 ringosc.dstage\[1\].id.delayenb1/A _263_/X VGND
+ VGND VPWR VPWR ringosc.dstage\[1\].id.delayen0/Z sky130_fd_sc_hd__einvn_2
Xringosc.dstage\[8\].id.delayint0 ringosc.dstage\[8\].id.delayen1/Z VGND VGND VPWR
+ VPWR ringosc.dstage\[8\].id.delayen0/A sky130_fd_sc_hd__clkinv_1
X_255_ _271_/C _276_/C _318_/Q _262_/B VGND VGND VPWR VPWR _255_/X sky130_fd_sc_hd__o31a_1
X_324_ _302_/A _324_/D _279_/X VGND VGND VPWR VPWR _324_/Q sky130_fd_sc_hd__dfrtp_1
X_186_ _311_/Q _323_/Q _138_/Y _139_/Y VGND VGND VPWR VPWR _188_/A sky130_fd_sc_hd__a22o_1
X_238_ _198_/B _211_/X _198_/B _211_/X VGND VGND VPWR VPWR _238_/X sky130_fd_sc_hd__a2bb2o_1
X_307_ _302_/A _307_/D _296_/X VGND VGND VPWR VPWR _307_/Q sky130_fd_sc_hd__dfrtp_1
X_169_ _308_/Q _320_/Q _167_/Y _168_/X VGND VGND VPWR VPWR _170_/A sky130_fd_sc_hd__a22o_1
XFILLER_20_59 VGND VGND VPWR VPWR sky130_fd_sc_hd__decap_4
XFILLER_20_15 VGND VGND VPWR VPWR sky130_fd_sc_hd__decap_12
XFILLER_19_111 VGND VGND VPWR VPWR sky130_fd_sc_hd__decap_3
XPHY_120 VGND VPWR sky130_fd_sc_hd__tapvpwrvgnd_1
XFILLER_16_103 VGND VGND VPWR VPWR sky130_fd_sc_hd__decap_3
XPHY_0 VGND VGND VPWR VPWR sky130_fd_sc_hd__decap_3
XFILLER_13_139 VGND VGND VPWR VPWR sky130_fd_sc_hd__decap_12
XFILLER_8_132 VGND VGND VPWR VPWR sky130_fd_sc_hd__decap_8
Xringosc.dstage\[5\].id.delaybuf1 ringosc.dstage\[5\].id.delayenb1/A VGND VGND VPWR
+ VPWR ringosc.dstage\[5\].id.delayen1/A sky130_fd_sc_hd__clkbuf_1
Xringosc.dstage\[1\].id.delayenb1 ringosc.dstage\[1\].id.delayenb1/A _272_/X VGND
+ VGND VPWR VPWR ringosc.dstage\[1\].id.delayen1/Z sky130_fd_sc_hd__einvn_2
X_271_ _271_/A _316_/Q _271_/C _275_/A VGND VGND VPWR VPWR _271_/X sky130_fd_sc_hd__or4_4
XFILLER_23_15 VGND VGND VPWR VPWR sky130_fd_sc_hd__decap_12
Xringosc.dstage\[1\].id.delayen0 ringosc.dstage\[1\].id.delayen0/A _263_/X VGND VGND
+ VPWR VPWR ringosc.dstage\[1\].id.delayen0/Z sky130_fd_sc_hd__einvp_1
X_254_ _317_/Q _254_/B VGND VGND VPWR VPWR _276_/C sky130_fd_sc_hd__or2_4
X_323_ _302_/A _323_/D _280_/X VGND VGND VPWR VPWR _323_/Q sky130_fd_sc_hd__dfrtp_1
X_185_ _181_/A _181_/B _184_/X VGND VGND VPWR VPWR _185_/Y sky130_fd_sc_hd__a21oi_1
XFILLER_9_28 VGND VGND VPWR VPWR sky130_fd_sc_hd__decap_12
X_237_ _210_/A _232_/X _236_/Y _314_/Q _210_/Y VGND VGND VPWR VPWR _314_/D sky130_fd_sc_hd__a32o_1
X_168_ _308_/Q _320_/Q _308_/Q _320_/Q VGND VGND VPWR VPWR _168_/X sky130_fd_sc_hd__o2bb2a_1
X_306_ _302_/A _306_/D _297_/X VGND VGND VPWR VPWR _306_/Q sky130_fd_sc_hd__dfrtp_1
XFILLER_20_38 VGND VGND VPWR VPWR sky130_fd_sc_hd__fill_2
XFILLER_20_27 VGND VGND VPWR VPWR sky130_fd_sc_hd__fill_2
XFILLER_19_91 VGND VGND VPWR VPWR sky130_fd_sc_hd__decap_12
XFILLER_25_115 VGND VGND VPWR VPWR sky130_fd_sc_hd__decap_8
XPHY_121 VGND VPWR sky130_fd_sc_hd__tapvpwrvgnd_1
XPHY_110 VGND VPWR sky130_fd_sc_hd__tapvpwrvgnd_1
XPHY_1 VGND VGND VPWR VPWR sky130_fd_sc_hd__decap_3
XFILLER_26_59 VGND VGND VPWR VPWR sky130_fd_sc_hd__decap_12
XFILLER_26_26 VGND VGND VPWR VPWR sky130_fd_sc_hd__decap_3
XFILLER_8_144 VGND VGND VPWR VPWR sky130_fd_sc_hd__decap_12
X_270_ _315_/Q _195_/B _276_/C _275_/A _269_/X VGND VGND VPWR VPWR _270_/X sky130_fd_sc_hd__o41a_2
XFILLER_5_103 VGND VGND VPWR VPWR sky130_fd_sc_hd__decap_4
XFILLER_5_158 VGND VGND VPWR VPWR sky130_fd_sc_hd__fill_2
XFILLER_4_62 VGND VGND VPWR VPWR sky130_fd_sc_hd__fill_1
Xringosc.dstage\[1\].id.delayen1 ringosc.dstage\[1\].id.delayen1/A _272_/X VGND VGND
+ VPWR VPWR ringosc.dstage\[1\].id.delayen1/Z sky130_fd_sc_hd__einvp_1
XFILLER_23_27 VGND VGND VPWR VPWR sky130_fd_sc_hd__decap_12
XFILLER_2_139 VGND VGND VPWR VPWR sky130_fd_sc_hd__decap_4
X_322_ _302_/A _322_/D _281_/X VGND VGND VPWR VPWR _322_/Q sky130_fd_sc_hd__dfrtp_1
Xringosc.dstage\[1\].id.delaybuf0 ringosc.dstage\[0\].id.delayen0/Z VGND VGND VPWR
+ VPWR ringosc.dstage\[1\].id.delayenb1/A sky130_fd_sc_hd__clkbuf_2
X_253_ _315_/Q _262_/B VGND VGND VPWR VPWR _253_/X sky130_fd_sc_hd__or2_1
Xringosc.dstage\[4\].id.delayint0 ringosc.dstage\[4\].id.delayen1/Z VGND VGND VPWR
+ VPWR ringosc.dstage\[4\].id.delayen0/A sky130_fd_sc_hd__clkinv_1
X_184_ _181_/A _181_/B _151_/A _183_/Y _181_/Y VGND VGND VPWR VPWR _184_/X sky130_fd_sc_hd__o221a_1
X_236_ _236_/A _236_/B VGND VGND VPWR VPWR _236_/Y sky130_fd_sc_hd__nand2_1
X_167_ _241_/B _167_/B VGND VGND VPWR VPWR _167_/Y sky130_fd_sc_hd__nor2_4
X_305_ _302_/A _305_/D _298_/X VGND VGND VPWR VPWR _306_/D sky130_fd_sc_hd__dfrtp_1
X_219_ _230_/B _218_/A _230_/A _194_/A _275_/B VGND VGND VPWR VPWR _220_/A sky130_fd_sc_hd__o32a_1
XPHY_100 VGND VPWR sky130_fd_sc_hd__tapvpwrvgnd_1
Xringosc.dstage\[9\].id.delayen0 ringosc.dstage\[9\].id.delayen0/A _259_/X VGND VGND
+ VPWR VPWR ringosc.dstage\[9\].id.delayen0/Z sky130_fd_sc_hd__einvp_1
XPHY_122 VGND VPWR sky130_fd_sc_hd__tapvpwrvgnd_1
XPHY_111 VGND VPWR sky130_fd_sc_hd__tapvpwrvgnd_1
XPHY_2 VGND VGND VPWR VPWR sky130_fd_sc_hd__decap_3
XFILLER_21_130 VGND VGND VPWR VPWR sky130_fd_sc_hd__fill_1
XFILLER_7_95 VGND VGND VPWR VPWR sky130_fd_sc_hd__decap_12
XFILLER_8_156 VGND VGND VPWR VPWR sky130_fd_sc_hd__decap_4
XFILLER_5_115 VGND VGND VPWR VPWR sky130_fd_sc_hd__decap_3
XFILLER_4_30 VGND VGND VPWR VPWR sky130_fd_sc_hd__decap_3
XFILLER_23_39 VGND VGND VPWR VPWR sky130_fd_sc_hd__decap_12
Xringosc.dstage\[1\].id.delaybuf1 ringosc.dstage\[1\].id.delayenb1/A VGND VGND VPWR
+ VPWR ringosc.dstage\[1\].id.delayen1/A sky130_fd_sc_hd__clkbuf_1
X_252_ _318_/Q _276_/B VGND VGND VPWR VPWR _262_/B sky130_fd_sc_hd__or2_4
XFILLER_1_151 VGND VGND VPWR VPWR sky130_fd_sc_hd__decap_8
X_183_ _183_/A VGND VGND VPWR VPWR _183_/Y sky130_fd_sc_hd__inv_2
X_321_ _302_/A _321_/D _282_/X VGND VGND VPWR VPWR _321_/Q sky130_fd_sc_hd__dfrtp_1
X_235_ _315_/Q _234_/X _315_/Q _234_/X VGND VGND VPWR VPWR _315_/D sky130_fd_sc_hd__o2bb2a_1
X_304_ _302_/A _304_/D _299_/X VGND VGND VPWR VPWR _305_/D sky130_fd_sc_hd__dfrtp_1
XFILLER_1_6 VGND VGND VPWR VPWR sky130_fd_sc_hd__decap_6
X_166_ _309_/Q _321_/Q VGND VGND VPWR VPWR _166_/Y sky130_fd_sc_hd__nor2_1
X_218_ _218_/A VGND VGND VPWR VPWR _218_/Y sky130_fd_sc_hd__inv_2
XFILLER_19_147 VGND VGND VPWR VPWR sky130_fd_sc_hd__decap_12
XFILLER_19_103 VGND VGND VPWR VPWR sky130_fd_sc_hd__decap_8
X_149_ _313_/Q VGND VGND VPWR VPWR _198_/A sky130_fd_sc_hd__inv_2
XFILLER_10_95 VGND VGND VPWR VPWR sky130_fd_sc_hd__decap_12
Xringosc.dstage\[9\].id.delayen1 ringosc.dstage\[9\].id.delayen1/A _270_/X VGND VGND
+ VPWR VPWR ringosc.dstage\[9\].id.delayen1/Z sky130_fd_sc_hd__einvp_1
XPHY_123 VGND VPWR sky130_fd_sc_hd__tapvpwrvgnd_1
XPHY_112 VGND VPWR sky130_fd_sc_hd__tapvpwrvgnd_1
XPHY_101 VGND VPWR sky130_fd_sc_hd__tapvpwrvgnd_1
XFILLER_22_109 VGND VGND VPWR VPWR sky130_fd_sc_hd__fill_1
XFILLER_15_150 VGND VGND VPWR VPWR sky130_fd_sc_hd__decap_8
XPHY_3 VGND VGND VPWR VPWR sky130_fd_sc_hd__decap_3
XFILLER_12_142 VGND VGND VPWR VPWR sky130_fd_sc_hd__fill_1
XFILLER_5_127 VGND VGND VPWR VPWR sky130_fd_sc_hd__fill_2
XFILLER_4_42 VGND VGND VPWR VPWR sky130_fd_sc_hd__fill_1
XFILLER_13_95 VGND VGND VPWR VPWR sky130_fd_sc_hd__decap_8
XFILLER_13_84 VGND VGND VPWR VPWR sky130_fd_sc_hd__decap_8
X_251_ _310_/Q _246_/B _311_/Q _241_/B _200_/B VGND VGND VPWR VPWR _307_/D sky130_fd_sc_hd__a311o_1
X_182_ _241_/B _167_/B _167_/Y VGND VGND VPWR VPWR _183_/A sky130_fd_sc_hd__a21oi_4
X_320_ _302_/A _320_/D _283_/X VGND VGND VPWR VPWR _320_/Q sky130_fd_sc_hd__dfrtp_1
XFILLER_24_94 VGND VGND VPWR VPWR sky130_fd_sc_hd__decap_12
X_303_ _266_/B _206_/B _318_/Q VGND VGND VPWR VPWR _303_/X sky130_fd_sc_hd__mux2_1
X_234_ _195_/B _194_/A _210_/A _233_/X VGND VGND VPWR VPWR _234_/X sky130_fd_sc_hd__o211a_1
X_165_ _310_/Q _322_/Q _164_/Y VGND VGND VPWR VPWR _165_/X sky130_fd_sc_hd__a21o_1
Xringosc.iss.reseten0 ringosc.iss.const1/HI _156_/A VGND VGND VPWR VPWR ringosc.ibufp00/A
+ sky130_fd_sc_hd__einvp_4
Xringosc.dstage\[0\].id.delayint0 ringosc.dstage\[0\].id.delayen1/Z VGND VGND VPWR
+ VPWR ringosc.dstage\[0\].id.delayen0/A sky130_fd_sc_hd__clkinv_1
X_217_ _271_/A _194_/Y _317_/Q _194_/A VGND VGND VPWR VPWR _218_/A sky130_fd_sc_hd__o22a_1
XFILLER_19_159 VGND VGND VPWR VPWR sky130_fd_sc_hd__fill_1
XFILLER_19_115 VGND VGND VPWR VPWR sky130_fd_sc_hd__decap_12
X_148_ _314_/Q VGND VGND VPWR VPWR _195_/B sky130_fd_sc_hd__inv_2
XFILLER_10_30 VGND VGND VPWR VPWR sky130_fd_sc_hd__decap_4
XFILLER_10_74 VGND VGND VPWR VPWR sky130_fd_sc_hd__decap_3
XFILLER_10_85 VGND VGND VPWR VPWR sky130_fd_sc_hd__fill_1
XFILLER_25_129 VGND VGND VPWR VPWR sky130_fd_sc_hd__decap_3
XFILLER_25_3 VGND VGND VPWR VPWR sky130_fd_sc_hd__decap_8
XPHY_124 VGND VPWR sky130_fd_sc_hd__tapvpwrvgnd_1
XPHY_113 VGND VPWR sky130_fd_sc_hd__tapvpwrvgnd_1
XPHY_102 VGND VPWR sky130_fd_sc_hd__tapvpwrvgnd_1
XPHY_4 VGND VGND VPWR VPWR sky130_fd_sc_hd__decap_3
XFILLER_26_18 VGND VGND VPWR VPWR sky130_fd_sc_hd__decap_8
XFILLER_21_154 VGND VGND VPWR VPWR sky130_fd_sc_hd__decap_6
XFILLER_16_95 VGND VGND VPWR VPWR sky130_fd_sc_hd__decap_8
XFILLER_16_51 VGND VGND VPWR VPWR sky130_fd_sc_hd__decap_8
Xringosc.dstage\[8\].id.delayenb0 ringosc.dstage\[8\].id.delayenb1/A _255_/X VGND
+ VGND VPWR VPWR ringosc.dstage\[8\].id.delayen0/Z sky130_fd_sc_hd__einvn_2
XFILLER_4_21 VGND VGND VPWR VPWR sky130_fd_sc_hd__decap_8
XFILLER_4_87 VGND VGND VPWR VPWR sky130_fd_sc_hd__decap_3
X_250_ _250_/A _250_/B VGND VGND VPWR VPWR _308_/D sky130_fd_sc_hd__or2_1
X_181_ _181_/A _181_/B VGND VGND VPWR VPWR _181_/Y sky130_fd_sc_hd__nand2_1
X_233_ _314_/Q _194_/Y _236_/A VGND VGND VPWR VPWR _233_/X sky130_fd_sc_hd__mux2_1
X_302_ _302_/A VGND VGND VPWR VPWR _302_/X sky130_fd_sc_hd__clkbuf_1
X_164_ _310_/Q _322_/Q VGND VGND VPWR VPWR _164_/Y sky130_fd_sc_hd__nor2_1
XFILLER_19_138 VGND VGND VPWR VPWR sky130_fd_sc_hd__decap_3
XFILLER_19_127 VGND VGND VPWR VPWR sky130_fd_sc_hd__decap_6
XFILLER_19_73 VGND VGND VPWR VPWR sky130_fd_sc_hd__fill_1
X_216_ _316_/Q _194_/Y _254_/B _194_/A VGND VGND VPWR VPWR _230_/B sky130_fd_sc_hd__a22o_1
X_147_ _315_/Q VGND VGND VPWR VPWR _195_/A sky130_fd_sc_hd__inv_2
XPHY_125 VGND VPWR sky130_fd_sc_hd__tapvpwrvgnd_1
XPHY_114 VGND VPWR sky130_fd_sc_hd__tapvpwrvgnd_1
XPHY_103 VGND VPWR sky130_fd_sc_hd__tapvpwrvgnd_1
Xringosc.iss.delayint0 ringosc.iss.delayen1/Z VGND VGND VPWR VPWR ringosc.iss.delayen0/A
+ sky130_fd_sc_hd__clkinv_1
XFILLER_15_130 VGND VGND VPWR VPWR sky130_fd_sc_hd__fill_2
XPHY_5 VGND VGND VPWR VPWR sky130_fd_sc_hd__decap_3
XFILLER_16_74 VGND VGND VPWR VPWR sky130_fd_sc_hd__decap_12
XFILLER_16_30 VGND VGND VPWR VPWR sky130_fd_sc_hd__decap_4
XFILLER_12_144 VGND VGND VPWR VPWR sky130_fd_sc_hd__decap_12
Xringosc.dstage\[8\].id.delayenb1 ringosc.dstage\[8\].id.delayenb1/A _267_/X VGND
+ VGND VPWR VPWR ringosc.dstage\[8\].id.delayen1/Z sky130_fd_sc_hd__einvn_2
X_180_ _167_/Y _168_/X _167_/Y _168_/X VGND VGND VPWR VPWR _181_/B sky130_fd_sc_hd__o2bb2ai_1
XFILLER_24_30 VGND VGND VPWR VPWR sky130_fd_sc_hd__fill_2
X_232_ _236_/A _236_/B VGND VGND VPWR VPWR _232_/X sky130_fd_sc_hd__or2_1
X_163_ _319_/Q _246_/D _307_/Q _200_/B VGND VGND VPWR VPWR _319_/D sky130_fd_sc_hd__a22o_1
X_301_ _301_/A VGND VGND VPWR VPWR _301_/X sky130_fd_sc_hd__clkbuf_1
XFILLER_1_45 VGND VGND VPWR VPWR sky130_fd_sc_hd__decap_4
XFILLER_19_52 VGND VGND VPWR VPWR sky130_fd_sc_hd__decap_4
XFILLER_10_87 VGND VGND VPWR VPWR sky130_fd_sc_hd__decap_4
XFILLER_25_109 VGND VGND VPWR VPWR sky130_fd_sc_hd__fill_2
Xringosc.dstage\[6\].id.delayen0 ringosc.dstage\[6\].id.delayen0/A _253_/X VGND VGND
+ VPWR VPWR ringosc.dstage\[6\].id.delayen0/Z sky130_fd_sc_hd__einvp_1
X_146_ _316_/Q VGND VGND VPWR VPWR _254_/B sky130_fd_sc_hd__inv_2
X_215_ _213_/Y _236_/B _236_/A _194_/A _213_/B VGND VGND VPWR VPWR _230_/A sky130_fd_sc_hd__o32a_1
XPHY_115 VGND VPWR sky130_fd_sc_hd__tapvpwrvgnd_1