* NGSPICE file created from digital_pll.ext - technology: sky130A

* Black-box entry subcircuit for sky130_fd_sc_hd__decap_12 abstract view
.subckt sky130_fd_sc_hd__decap_12 VGND VNB VPB VPWR
.ends

* Black-box entry subcircuit for sky130_fd_sc_hd__fill_1 abstract view
.subckt sky130_fd_sc_hd__fill_1 VGND VNB VPB VPWR
.ends

* Black-box entry subcircuit for sky130_fd_sc_hd__decap_8 abstract view
.subckt sky130_fd_sc_hd__decap_8 VGND VNB VPB VPWR
.ends

* Black-box entry subcircuit for sky130_fd_sc_hd__or3_2 abstract view
.subckt sky130_fd_sc_hd__or3_2 A B C VGND VNB VPB VPWR X
.ends

* Black-box entry subcircuit for sky130_fd_sc_hd__dfrtp_2 abstract view
.subckt sky130_fd_sc_hd__dfrtp_2 CLK D RESET_B VGND VNB VPB VPWR Q
.ends

* Black-box entry subcircuit for sky130_fd_sc_hd__fill_2 abstract view
.subckt sky130_fd_sc_hd__fill_2 VGND VNB VPB VPWR
.ends

* Black-box entry subcircuit for sky130_fd_sc_hd__clkinv_1 abstract view
.subckt sky130_fd_sc_hd__clkinv_1 A VGND VNB VPB VPWR Y
.ends

* Black-box entry subcircuit for sky130_fd_sc_hd__mux2_1 abstract view
.subckt sky130_fd_sc_hd__mux2_1 A0 A1 S VGND VNB VPB VPWR X
.ends

* Black-box entry subcircuit for sky130_fd_sc_hd__decap_3 abstract view
.subckt sky130_fd_sc_hd__decap_3 VGND VNB VPB VPWR
.ends

* Black-box entry subcircuit for sky130_fd_sc_hd__a311o_1 abstract view
.subckt sky130_fd_sc_hd__a311o_1 A1 A2 A3 B1 C1 VGND VNB VPB VPWR X
.ends

* Black-box entry subcircuit for sky130_fd_sc_hd__a2bb2o_1 abstract view
.subckt sky130_fd_sc_hd__a2bb2o_1 A1_N A2_N B1 B2 VGND VNB VPB VPWR X
.ends

* Black-box entry subcircuit for sky130_fd_sc_hd__einvp_1 abstract view
.subckt sky130_fd_sc_hd__einvp_1 A TE VGND VNB VPB VPWR Z
.ends

* Black-box entry subcircuit for sky130_fd_sc_hd__decap_4 abstract view
.subckt sky130_fd_sc_hd__decap_4 VGND VNB VPB VPWR
.ends

* Black-box entry subcircuit for sky130_fd_sc_hd__einvn_2 abstract view
.subckt sky130_fd_sc_hd__einvn_2 A TE_B VGND VNB VPB VPWR Z
.ends

* Black-box entry subcircuit for sky130_fd_sc_hd__einvn_4 abstract view
.subckt sky130_fd_sc_hd__einvn_4 A TE_B VGND VNB VPB VPWR Z
.ends

* Black-box entry subcircuit for sky130_fd_sc_hd__decap_6 abstract view
.subckt sky130_fd_sc_hd__decap_6 VGND VNB VPB VPWR
.ends

* Black-box entry subcircuit for sky130_fd_sc_hd__o311a_1 abstract view
.subckt sky130_fd_sc_hd__o311a_1 A1 A2 A3 B1 C1 VGND VNB VPB VPWR X
.ends

* Black-box entry subcircuit for sky130_fd_sc_hd__or2_1 abstract view
.subckt sky130_fd_sc_hd__or2_1 A B VGND VNB VPB VPWR X
.ends

* Black-box entry subcircuit for sky130_fd_sc_hd__clkbuf_1 abstract view
.subckt sky130_fd_sc_hd__clkbuf_1 A VGND VNB VPB VPWR X
.ends

* Black-box entry subcircuit for sky130_fd_sc_hd__nand2_1 abstract view
.subckt sky130_fd_sc_hd__nand2_1 A B VGND VNB VPB VPWR Y
.ends

* Black-box entry subcircuit for sky130_fd_sc_hd__dfrtp_4 abstract view
.subckt sky130_fd_sc_hd__dfrtp_4 CLK D RESET_B VGND VNB VPB VPWR Q
.ends

* Black-box entry subcircuit for sky130_fd_sc_hd__o221a_1 abstract view
.subckt sky130_fd_sc_hd__o221a_1 A1 A2 B1 B2 C1 VGND VNB VPB VPWR X
.ends

* Black-box entry subcircuit for sky130_fd_sc_hd__clkbuf_2 abstract view
.subckt sky130_fd_sc_hd__clkbuf_2 A VGND VNB VPB VPWR X
.ends

* Black-box entry subcircuit for sky130_fd_sc_hd__a31o_1 abstract view
.subckt sky130_fd_sc_hd__a31o_1 A1 A2 A3 B1 VGND VNB VPB VPWR X
.ends

* Black-box entry subcircuit for sky130_fd_sc_hd__mux2_2 abstract view
.subckt sky130_fd_sc_hd__mux2_2 A0 A1 S VGND VNB VPB VPWR X
.ends

* Black-box entry subcircuit for sky130_fd_sc_hd__a22o_1 abstract view
.subckt sky130_fd_sc_hd__a22o_1 A1 A2 B1 B2 VGND VNB VPB VPWR X
.ends

* Black-box entry subcircuit for sky130_fd_sc_hd__a32o_1 abstract view
.subckt sky130_fd_sc_hd__a32o_1 A1 A2 A3 B1 B2 VGND VNB VPB VPWR X
.ends

* Black-box entry subcircuit for sky130_fd_sc_hd__o21ai_1 abstract view
.subckt sky130_fd_sc_hd__o21ai_1 A1 A2 B1 VGND VNB VPB VPWR Y
.ends

* Black-box entry subcircuit for sky130_fd_sc_hd__nor2_1 abstract view
.subckt sky130_fd_sc_hd__nor2_1 A B VGND VNB VPB VPWR Y
.ends

* Black-box entry subcircuit for sky130_fd_sc_hd__tapvpwrvgnd_1 abstract view
.subckt sky130_fd_sc_hd__tapvpwrvgnd_1 VGND VPWR
.ends

* Black-box entry subcircuit for sky130_fd_sc_hd__and4_1 abstract view
.subckt sky130_fd_sc_hd__and4_1 A B C D VGND VNB VPB VPWR X
.ends

* Black-box entry subcircuit for sky130_fd_sc_hd__inv_2 abstract view
.subckt sky130_fd_sc_hd__inv_2 A VGND VNB VPB VPWR Y
.ends

* Black-box entry subcircuit for sky130_fd_sc_hd__o22a_1 abstract view
.subckt sky130_fd_sc_hd__o22a_1 A1 A2 B1 B2 VGND VNB VPB VPWR X
.ends

* Black-box entry subcircuit for sky130_fd_sc_hd__a221o_1 abstract view
.subckt sky130_fd_sc_hd__a221o_1 A1 A2 B1 B2 C1 VGND VNB VPB VPWR X
.ends

* Black-box entry subcircuit for sky130_fd_sc_hd__a21oi_1 abstract view
.subckt sky130_fd_sc_hd__a21oi_1 A1 A2 B1 VGND VNB VPB VPWR Y
.ends

* Black-box entry subcircuit for sky130_fd_sc_hd__or2_4 abstract view
.subckt sky130_fd_sc_hd__or2_4 A B VGND VNB VPB VPWR X
.ends

* Black-box entry subcircuit for sky130_fd_sc_hd__einvp_2 abstract view
.subckt sky130_fd_sc_hd__einvp_2 A TE VGND VNB VPB VPWR Z
.ends

* Black-box entry subcircuit for sky130_fd_sc_hd__o31a_4 abstract view
.subckt sky130_fd_sc_hd__o31a_4 A1 A2 A3 B1 VGND VNB VPB VPWR X
.ends

* Black-box entry subcircuit for sky130_fd_sc_hd__o221ai_2 abstract view
.subckt sky130_fd_sc_hd__o221ai_2 A1 A2 B1 B2 C1 VGND VNB VPB VPWR Y
.ends

* Black-box entry subcircuit for sky130_fd_sc_hd__nor2_8 abstract view
.subckt sky130_fd_sc_hd__nor2_8 A B VGND VNB VPB VPWR Y
.ends

* Black-box entry subcircuit for sky130_fd_sc_hd__o31a_1 abstract view
.subckt sky130_fd_sc_hd__o31a_1 A1 A2 A3 B1 VGND VNB VPB VPWR X
.ends

* Black-box entry subcircuit for sky130_fd_sc_hd__einvp_4 abstract view
.subckt sky130_fd_sc_hd__einvp_4 A TE VGND VNB VPB VPWR Z
.ends

* Black-box entry subcircuit for sky130_fd_sc_hd__nand2_4 abstract view
.subckt sky130_fd_sc_hd__nand2_4 A B VGND VNB VPB VPWR Y
.ends

* Black-box entry subcircuit for sky130_fd_sc_hd__and3_1 abstract view
.subckt sky130_fd_sc_hd__and3_1 A B C VGND VNB VPB VPWR X
.ends

* Black-box entry subcircuit for sky130_fd_sc_hd__or3_1 abstract view
.subckt sky130_fd_sc_hd__or3_1 A B C VGND VNB VPB VPWR X
.ends

* Black-box entry subcircuit for sky130_fd_sc_hd__nand2_2 abstract view
.subckt sky130_fd_sc_hd__nand2_2 A B VGND VNB VPB VPWR Y
.ends

* Black-box entry subcircuit for sky130_fd_sc_hd__buf_8 abstract view
.subckt sky130_fd_sc_hd__buf_8 A VGND VNB VPB VPWR X
.ends

* Black-box entry subcircuit for sky130_fd_sc_hd__dfrtp_1 abstract view
.subckt sky130_fd_sc_hd__dfrtp_1 CLK D RESET_B VGND VNB VPB VPWR Q
.ends

* Black-box entry subcircuit for sky130_fd_sc_hd__a21bo_1 abstract view
.subckt sky130_fd_sc_hd__a21bo_1 A1 A2 B1_N VGND VNB VPB VPWR X
.ends

* Black-box entry subcircuit for sky130_fd_sc_hd__o41a_1 abstract view
.subckt sky130_fd_sc_hd__o41a_1 A1 A2 A3 A4 B1 VGND VNB VPB VPWR X
.ends

* Black-box entry subcircuit for sky130_fd_sc_hd__buf_4 abstract view
.subckt sky130_fd_sc_hd__buf_4 A VGND VNB VPB VPWR X
.ends

* Black-box entry subcircuit for sky130_fd_sc_hd__buf_1 abstract view
.subckt sky130_fd_sc_hd__buf_1 A VGND VNB VPB VPWR X
.ends

* Black-box entry subcircuit for sky130_fd_sc_hd__o2bb2a_1 abstract view
.subckt sky130_fd_sc_hd__o2bb2a_1 A1_N A2_N B1 B2 VGND VNB VPB VPWR X
.ends

* Black-box entry subcircuit for sky130_fd_sc_hd__o21a_1 abstract view
.subckt sky130_fd_sc_hd__o21a_1 A1 A2 B1 VGND VNB VPB VPWR X
.ends

* Black-box entry subcircuit for sky130_fd_sc_hd__o22ai_1 abstract view
.subckt sky130_fd_sc_hd__o22ai_1 A1 A2 B1 B2 VGND VNB VPB VPWR Y
.ends

* Black-box entry subcircuit for sky130_fd_sc_hd__clkinv_4 abstract view
.subckt sky130_fd_sc_hd__clkinv_4 A VGND VNB VPB VPWR Y
.ends

* Black-box entry subcircuit for sky130_fd_sc_hd__a2bb2o_4 abstract view
.subckt sky130_fd_sc_hd__a2bb2o_4 A1_N A2_N B1 B2 VGND VNB VPB VPWR X
.ends

* Black-box entry subcircuit for sky130_fd_sc_hd__inv_1 abstract view
.subckt sky130_fd_sc_hd__inv_1 A VGND VNB VPB VPWR Y
.ends

* Black-box entry subcircuit for sky130_fd_sc_hd__nor2_4 abstract view
.subckt sky130_fd_sc_hd__nor2_4 A B VGND VNB VPB VPWR Y
.ends

* Black-box entry subcircuit for sky130_fd_sc_hd__o32a_1 abstract view
.subckt sky130_fd_sc_hd__o32a_1 A1 A2 A3 B1 B2 VGND VNB VPB VPWR X
.ends

* Black-box entry subcircuit for sky130_fd_sc_hd__clkinv_2 abstract view
.subckt sky130_fd_sc_hd__clkinv_2 A VGND VNB VPB VPWR Y
.ends

* Black-box entry subcircuit for sky130_fd_sc_hd__clkinv_8 abstract view
.subckt sky130_fd_sc_hd__clkinv_8 A VGND VNB VPB VPWR Y
.ends

* Black-box entry subcircuit for sky130_fd_sc_hd__o211a_1 abstract view
.subckt sky130_fd_sc_hd__o211a_1 A1 A2 B1 C1 VGND VNB VPB VPWR X
.ends

* Black-box entry subcircuit for sky130_fd_sc_hd__a21o_1 abstract view
.subckt sky130_fd_sc_hd__a21o_1 A1 A2 B1 VGND VNB VPB VPWR X
.ends

* Black-box entry subcircuit for sky130_fd_sc_hd__o2111ai_4 abstract view
.subckt sky130_fd_sc_hd__o2111ai_4 A1 A2 B1 C1 D1 VGND VNB VPB VPWR Y
.ends

* Black-box entry subcircuit for sky130_fd_sc_hd__a21oi_4 abstract view
.subckt sky130_fd_sc_hd__a21oi_4 A1 A2 B1 VGND VNB VPB VPWR Y
.ends

* Black-box entry subcircuit for sky130_fd_sc_hd__conb_1 abstract view
.subckt sky130_fd_sc_hd__conb_1 VGND VNB VPB VPWR HI LO
.ends

* Black-box entry subcircuit for sky130_fd_sc_hd__o2bb2ai_1 abstract view
.subckt sky130_fd_sc_hd__o2bb2ai_1 A1_N A2_N B1 B2 VGND VNB VPB VPWR Y
.ends

* Black-box entry subcircuit for sky130_fd_sc_hd__and2_1 abstract view
.subckt sky130_fd_sc_hd__and2_1 A B VGND VNB VPB VPWR X
.ends

* Black-box entry subcircuit for sky130_fd_sc_hd__or4_4 abstract view
.subckt sky130_fd_sc_hd__or4_4 A B C D VGND VNB VPB VPWR X
.ends

* Black-box entry subcircuit for sky130_fd_sc_hd__or2_2 abstract view
.subckt sky130_fd_sc_hd__or2_2 A B VGND VNB VPB VPWR X
.ends

* Black-box entry subcircuit for sky130_fd_sc_hd__o41a_2 abstract view
.subckt sky130_fd_sc_hd__o41a_2 A1 A2 A3 A4 B1 VGND VNB VPB VPWR X
.ends

* Black-box entry subcircuit for sky130_fd_sc_hd__a22oi_2 abstract view
.subckt sky130_fd_sc_hd__a22oi_2 A1 A2 B1 B2 VGND VNB VPB VPWR Y
.ends

.subckt digital_pll clockp[0] clockp[1] dco div[0] div[1] div[2] div[3] div[4] enable
+ ext_trim[0] ext_trim[10] ext_trim[11] ext_trim[12] ext_trim[13] ext_trim[14] ext_trim[15]
+ ext_trim[16] ext_trim[17] ext_trim[18] ext_trim[19] ext_trim[1] ext_trim[20] ext_trim[21]
+ ext_trim[22] ext_trim[23] ext_trim[24] ext_trim[25] ext_trim[2] ext_trim[3] ext_trim[4]
+ ext_trim[5] ext_trim[6] ext_trim[7] ext_trim[8] ext_trim[9] osc resetb VPWR VGND
XFILLER_22_144 VGND VGND VPWR VPWR sky130_fd_sc_hd__decap_12
XFILLER_26_85 VGND VGND VPWR VPWR sky130_fd_sc_hd__fill_1
XFILLER_26_30 VGND VGND VPWR VPWR sky130_fd_sc_hd__decap_8
X_294_ _297_/C _302_/C _301_/A VGND VGND VPWR VPWR _294_/X sky130_fd_sc_hd__or3_2
X_363_ _328_/A _363_/D _318_/X VGND VGND VPWR VPWR _363_/Q sky130_fd_sc_hd__dfrtp_2
XFILLER_9_115 VGND VGND VPWR VPWR sky130_fd_sc_hd__fill_2
Xringosc.dstage\[1\].id.delayint0 ringosc.dstage\[1\].id.delayen1/Z VGND VGND VPWR
+ VPWR ringosc.dstage\[1\].id.delayen0/A sky130_fd_sc_hd__clkinv_1
X_346_ _288_/B _346_/A1 _355_/S VGND VGND VPWR VPWR _346_/X sky130_fd_sc_hd__mux2_1
XFILLER_12_87 VGND VGND VPWR VPWR sky130_fd_sc_hd__decap_3
X_277_ _362_/Q _272_/B _363_/Q _267_/B _226_/B VGND VGND VPWR VPWR _359_/D sky130_fd_sc_hd__a311o_1
X_200_ _196_/A _199_/Y _196_/A _199_/Y VGND VGND VPWR VPWR _200_/X sky130_fd_sc_hd__a2bb2o_1
Xringosc.dstage\[11\].id.delayen1 ringosc.dstage\[11\].id.delayen1/A _331_/X VGND
+ VGND VPWR VPWR ringosc.dstage\[11\].id.delayen1/Z sky130_fd_sc_hd__einvp_1
X_329_ _292_/B _232_/B _370_/Q VGND VGND VPWR VPWR _329_/X sky130_fd_sc_hd__mux2_1
XFILLER_0_46 VGND VGND VPWR VPWR sky130_fd_sc_hd__decap_4
XFILLER_9_55 VGND VGND VPWR VPWR sky130_fd_sc_hd__fill_2
XFILLER_22_7 VGND VGND VPWR VPWR sky130_fd_sc_hd__fill_1
XFILLER_18_42 VGND VGND VPWR VPWR sky130_fd_sc_hd__decap_12
Xringosc.dstage\[10\].id.delayenb0 ringosc.dstage\[10\].id.delayenb1/A _332_/X VGND
+ VGND VPWR VPWR ringosc.dstage\[10\].id.delayen0/Z sky130_fd_sc_hd__einvn_2
XFILLER_20_87 VGND VGND VPWR VPWR sky130_fd_sc_hd__decap_3
Xringosc.dstage\[9\].id.delayenb0 ringosc.dstage\[9\].id.delayenb1/A _334_/X VGND
+ VGND VPWR VPWR ringosc.dstage\[9\].id.delayen0/Z sky130_fd_sc_hd__einvn_4
XFILLER_13_3 VGND VGND VPWR VPWR sky130_fd_sc_hd__decap_6
XFILLER_6_34 VGND VGND VPWR VPWR sky130_fd_sc_hd__decap_12
XFILLER_25_164 VGND VGND VPWR VPWR sky130_fd_sc_hd__decap_4
XFILLER_16_164 VGND VGND VPWR VPWR sky130_fd_sc_hd__fill_1
XFILLER_22_156 VGND VGND VPWR VPWR sky130_fd_sc_hd__decap_8
X_293_ _367_/Q _221_/B _302_/B _370_/Q _232_/B VGND VGND VPWR VPWR _293_/X sky130_fd_sc_hd__o311a_1
X_362_ _328_/A _362_/D _319_/X VGND VGND VPWR VPWR _362_/Q sky130_fd_sc_hd__dfrtp_2
X_345_ _300_/X _345_/A1 _354_/S VGND VGND VPWR VPWR _345_/X sky130_fd_sc_hd__mux2_1
X_276_ _276_/A _276_/B VGND VGND VPWR VPWR _360_/D sky130_fd_sc_hd__or2_1
X_328_ _328_/A VGND VGND VPWR VPWR _328_/X sky130_fd_sc_hd__clkbuf_1
XFILLER_2_144 VGND VGND VPWR VPWR sky130_fd_sc_hd__decap_8
X_259_ _366_/Q _220_/Y _262_/A VGND VGND VPWR VPWR _259_/X sky130_fd_sc_hd__mux2_1
XFILLER_18_87 VGND VGND VPWR VPWR sky130_fd_sc_hd__decap_8
XFILLER_20_55 VGND VGND VPWR VPWR sky130_fd_sc_hd__decap_12
Xringosc.dstage\[10\].id.delayenb1 ringosc.dstage\[10\].id.delayenb1/A _333_/X VGND
+ VGND VPWR VPWR ringosc.dstage\[10\].id.delayen1/Z sky130_fd_sc_hd__einvn_2
Xringosc.dstage\[9\].id.delayenb1 ringosc.dstage\[9\].id.delayenb1/A _335_/X VGND
+ VGND VPWR VPWR ringosc.dstage\[9\].id.delayen1/Z sky130_fd_sc_hd__einvn_2
XFILLER_6_46 VGND VGND VPWR VPWR sky130_fd_sc_hd__fill_2
XFILLER_15_44 VGND VGND VPWR VPWR sky130_fd_sc_hd__decap_6
XFILLER_26_87 VGND VGND VPWR VPWR sky130_fd_sc_hd__decap_12
X_292_ _301_/A _292_/B VGND VGND VPWR VPWR _299_/B sky130_fd_sc_hd__nand2_1
X_361_ _328_/A _361_/D _320_/X VGND VGND VPWR VPWR _361_/Q sky130_fd_sc_hd__dfrtp_4
XFILLER_3_58 VGND VGND VPWR VPWR sky130_fd_sc_hd__fill_2
X_344_ _286_/X _344_/A1 _354_/S VGND VGND VPWR VPWR _344_/X sky130_fd_sc_hd__mux2_1
X_275_ _267_/A _267_/B _360_/Q _359_/Q _272_/D VGND VGND VPWR VPWR _276_/B sky130_fd_sc_hd__o221a_1
Xringosc.dstage\[4\].id.delayen0 ringosc.dstage\[4\].id.delayen0/A _344_/X VGND VGND
+ VPWR VPWR ringosc.dstage\[4\].id.delayen0/Z sky130_fd_sc_hd__einvp_1
XFILLER_0_59 VGND VGND VPWR VPWR sky130_fd_sc_hd__fill_1
XFILLER_0_37 VGND VGND VPWR VPWR sky130_fd_sc_hd__fill_2
XFILLER_3_3 VGND VGND VPWR VPWR sky130_fd_sc_hd__decap_12
X_189_ _371_/Q _226_/B VGND VGND VPWR VPWR _371_/D sky130_fd_sc_hd__or2_1
X_327_ _327_/A VGND VGND VPWR VPWR _327_/X sky130_fd_sc_hd__clkbuf_1
X_258_ _262_/A _262_/B VGND VGND VPWR VPWR _258_/X sky130_fd_sc_hd__or2_1
XFILLER_18_11 VGND VGND VPWR VPWR sky130_fd_sc_hd__decap_12
XFILLER_20_67 VGND VGND VPWR VPWR sky130_fd_sc_hd__decap_8
XFILLER_20_45 VGND VGND VPWR VPWR sky130_fd_sc_hd__fill_1
XFILLER_28_152 VGND VGND VPWR VPWR sky130_fd_sc_hd__fill_1
XFILLER_28_141 VGND VGND VPWR VPWR sky130_fd_sc_hd__decap_4
XFILLER_6_69 VGND VGND VPWR VPWR sky130_fd_sc_hd__decap_12
XFILLER_25_111 VGND VGND VPWR VPWR sky130_fd_sc_hd__decap_3
Xringosc.dstage\[5\].id.delayenb0 ringosc.dstage\[5\].id.delayenb1/A _342_/X VGND
+ VGND VPWR VPWR ringosc.ibufp10/A sky130_fd_sc_hd__einvn_4
Xringosc.dstage\[10\].id.delaybuf0 ringosc.dstage\[9\].id.delayen0/Z VGND VGND VPWR
+ VPWR ringosc.dstage\[10\].id.delayenb1/A sky130_fd_sc_hd__clkbuf_2
Xringosc.dstage\[9\].id.delaybuf0 ringosc.dstage\[8\].id.delayen0/Z VGND VGND VPWR
+ VPWR ringosc.dstage\[9\].id.delayenb1/A sky130_fd_sc_hd__clkbuf_2
XFILLER_22_125 VGND VGND VPWR VPWR sky130_fd_sc_hd__decap_12
XFILLER_26_99 VGND VGND VPWR VPWR sky130_fd_sc_hd__decap_4
XFILLER_26_77 VGND VGND VPWR VPWR sky130_fd_sc_hd__decap_8
XFILLER_26_44 VGND VGND VPWR VPWR sky130_fd_sc_hd__decap_6
X_291_ _369_/Q _368_/Q _367_/Q _370_/Q VGND VGND VPWR VPWR _291_/X sky130_fd_sc_hd__a31o_1
X_360_ _328_/A _360_/D _321_/X VGND VGND VPWR VPWR _360_/Q sky130_fd_sc_hd__dfrtp_4
XFILLER_9_129 VGND VGND VPWR VPWR sky130_fd_sc_hd__decap_6
XFILLER_3_15 VGND VGND VPWR VPWR sky130_fd_sc_hd__decap_12
X_343_ _301_/Y _343_/A1 _355_/S VGND VGND VPWR VPWR _343_/X sky130_fd_sc_hd__mux2_2
X_274_ _272_/D _268_/A _273_/Y _276_/A VGND VGND VPWR VPWR _361_/D sky130_fd_sc_hd__a31o_1
XFILLER_5_121 VGND VGND VPWR VPWR sky130_fd_sc_hd__decap_8
XFILLER_5_132 VGND VGND VPWR VPWR sky130_fd_sc_hd__decap_12
XFILLER_23_67 VGND VGND VPWR VPWR sky130_fd_sc_hd__decap_12
Xringosc.dstage\[4\].id.delayen1 ringosc.dstage\[4\].id.delayen1/A _345_/X VGND VGND
+ VPWR VPWR ringosc.dstage\[4\].id.delayen1/Z sky130_fd_sc_hd__einvp_1
X_326_ _370_/Q VGND VGND VPWR VPWR _326_/X sky130_fd_sc_hd__clkbuf_1
X_188_ _372_/Q _272_/D _371_/Q _226_/B VGND VGND VPWR VPWR _372_/D sky130_fd_sc_hd__a22o_1
XFILLER_9_47 VGND VGND VPWR VPWR sky130_fd_sc_hd__decap_8
X_257_ _236_/A _251_/X _256_/Y _368_/Q _236_/Y VGND VGND VPWR VPWR _368_/D sky130_fd_sc_hd__a32o_1
XFILLER_18_23 VGND VGND VPWR VPWR sky130_fd_sc_hd__decap_6
X_309_ _327_/A VGND VGND VPWR VPWR _309_/X sky130_fd_sc_hd__clkbuf_1
XFILLER_19_164 VGND VGND VPWR VPWR sky130_fd_sc_hd__decap_4
XFILLER_20_7 VGND VGND VPWR VPWR sky130_fd_sc_hd__fill_1
XFILLER_10_90 VGND VGND VPWR VPWR sky130_fd_sc_hd__decap_12
Xringosc.dstage\[10\].id.delaybuf1 ringosc.dstage\[10\].id.delayenb1/A VGND VGND VPWR
+ VPWR ringosc.dstage\[10\].id.delayen1/A sky130_fd_sc_hd__clkbuf_1
Xringosc.dstage\[5\].id.delayenb1 ringosc.dstage\[5\].id.delayenb1/A _343_/X VGND
+ VGND VPWR VPWR ringosc.dstage\[5\].id.delayen1/Z sky130_fd_sc_hd__einvn_2
Xringosc.dstage\[9\].id.delaybuf1 ringosc.dstage\[9\].id.delayenb1/A VGND VGND VPWR
+ VPWR ringosc.dstage\[9\].id.delayen1/A sky130_fd_sc_hd__clkbuf_1
XFILLER_16_134 VGND VGND VPWR VPWR sky130_fd_sc_hd__decap_6
XFILLER_11_3 VGND VGND VPWR VPWR sky130_fd_sc_hd__decap_12
XFILLER_22_137 VGND VGND VPWR VPWR sky130_fd_sc_hd__decap_6
XFILLER_13_115 VGND VGND VPWR VPWR sky130_fd_sc_hd__decap_3
XFILLER_13_104 VGND VGND VPWR VPWR sky130_fd_sc_hd__fill_2
X_290_ _369_/Q _368_/Q _297_/C _370_/Q VGND VGND VPWR VPWR _290_/X sky130_fd_sc_hd__a31o_1
XFILLER_3_27 VGND VGND VPWR VPWR sky130_fd_sc_hd__decap_12
X_342_ _283_/X _342_/A1 _354_/S VGND VGND VPWR VPWR _342_/X sky130_fd_sc_hd__mux2_2
X_273_ _267_/A _267_/B _267_/C VGND VGND VPWR VPWR _273_/Y sky130_fd_sc_hd__o21ai_1
XFILLER_5_144 VGND VGND VPWR VPWR sky130_fd_sc_hd__decap_12
XFILLER_23_79 VGND VGND VPWR VPWR sky130_fd_sc_hd__decap_12
XFILLER_23_46 VGND VGND VPWR VPWR sky130_fd_sc_hd__fill_1
XFILLER_4_70 VGND VGND VPWR VPWR sky130_fd_sc_hd__decap_12
X_325_ _327_/A VGND VGND VPWR VPWR _325_/X sky130_fd_sc_hd__clkbuf_1
X_187_ _372_/Q _226_/B _373_/Q _272_/D VGND VGND VPWR VPWR _373_/D sky130_fd_sc_hd__a22o_1
X_256_ _256_/A _256_/B VGND VGND VPWR VPWR _256_/Y sky130_fd_sc_hd__nand2_1
XFILLER_18_79 VGND VGND VPWR VPWR sky130_fd_sc_hd__decap_6
X_239_ _288_/A _239_/B VGND VGND VPWR VPWR _239_/Y sky130_fd_sc_hd__nor2_1
XFILLER_1_93 VGND VGND VPWR VPWR sky130_fd_sc_hd__fill_2
X_308_ _327_/A VGND VGND VPWR VPWR _308_/X sky130_fd_sc_hd__clkbuf_1
XFILLER_28_121 VGND VGND VPWR VPWR sky130_fd_sc_hd__decap_12
XFILLER_19_132 VGND VGND VPWR VPWR sky130_fd_sc_hd__fill_2
XPHY_130 VGND VPWR sky130_fd_sc_hd__tapvpwrvgnd_1
XFILLER_13_149 VGND VGND VPWR VPWR sky130_fd_sc_hd__decap_8
XFILLER_3_39 VGND VGND VPWR VPWR sky130_fd_sc_hd__fill_2
Xringosc.dstage\[5\].id.delaybuf0 ringosc.dstage\[4\].id.delayen0/Z VGND VGND VPWR
+ VPWR ringosc.dstage\[5\].id.delayenb1/A sky130_fd_sc_hd__clkbuf_2
XFILLER_8_142 VGND VGND VPWR VPWR sky130_fd_sc_hd__fill_1
X_341_ _299_/B _341_/A1 _355_/S VGND VGND VPWR VPWR _341_/X sky130_fd_sc_hd__mux2_1
Xringosc.dstage\[1\].id.delayenb0 ringosc.dstage\[1\].id.delayenb1/A _350_/X VGND
+ VGND VPWR VPWR ringosc.dstage\[1\].id.delayen0/Z sky130_fd_sc_hd__einvn_2
X_272_ _362_/Q _272_/B _363_/Q _272_/D VGND VGND VPWR VPWR _276_/A sky130_fd_sc_hd__and4_1
Xringosc.dstage\[8\].id.delayint0 ringosc.dstage\[8\].id.delayen1/Z VGND VGND VPWR
+ VPWR ringosc.dstage\[8\].id.delayen0/A sky130_fd_sc_hd__clkinv_1
XFILLER_5_156 VGND VGND VPWR VPWR sky130_fd_sc_hd__decap_12
XFILLER_4_82 VGND VGND VPWR VPWR sky130_fd_sc_hd__decap_4
X_255_ _297_/A _236_/A _254_/X VGND VGND VPWR VPWR _369_/D sky130_fd_sc_hd__o21ai_1
XFILLER_13_91 VGND VGND VPWR VPWR sky130_fd_sc_hd__decap_6
X_186_ _374_/Q _272_/D _359_/Q _226_/B VGND VGND VPWR VPWR _374_/D sky130_fd_sc_hd__a22o_1
X_324_ _327_/A VGND VGND VPWR VPWR _324_/X sky130_fd_sc_hd__clkbuf_1
XFILLER_18_69 VGND VGND VPWR VPWR sky130_fd_sc_hd__fill_1
XFILLER_1_72 VGND VGND VPWR VPWR sky130_fd_sc_hd__decap_6
X_169_ _374_/Q VGND VGND VPWR VPWR _193_/B sky130_fd_sc_hd__inv_2
X_307_ _327_/A VGND VGND VPWR VPWR _307_/X sky130_fd_sc_hd__clkbuf_1
X_238_ _224_/A _220_/A _224_/B _237_/X VGND VGND VPWR VPWR _262_/A sky130_fd_sc_hd__o22a_1
XFILLER_28_133 VGND VGND VPWR VPWR sky130_fd_sc_hd__decap_4
XFILLER_20_26 VGND VGND VPWR VPWR sky130_fd_sc_hd__decap_3
XFILLER_19_111 VGND VGND VPWR VPWR sky130_fd_sc_hd__decap_3
XFILLER_25_103 VGND VGND VPWR VPWR sky130_fd_sc_hd__decap_8
XPHY_131 VGND VPWR sky130_fd_sc_hd__tapvpwrvgnd_1
XPHY_120 VGND VPWR sky130_fd_sc_hd__tapvpwrvgnd_1
XFILLER_16_158 VGND VGND VPWR VPWR sky130_fd_sc_hd__decap_6
XFILLER_16_147 VGND VGND VPWR VPWR sky130_fd_sc_hd__fill_2
Xoutput36 _328_/X VGND VGND VPWR VPWR clockp[0] sky130_fd_sc_hd__clkbuf_2
XFILLER_22_106 VGND VGND VPWR VPWR sky130_fd_sc_hd__decap_4
XPHY_0 VGND VGND VPWR VPWR sky130_fd_sc_hd__decap_3
XFILLER_7_82 VGND VGND VPWR VPWR sky130_fd_sc_hd__fill_1
XFILLER_8_110 VGND VGND VPWR VPWR sky130_fd_sc_hd__fill_1
Xringosc.dstage\[5\].id.delaybuf1 ringosc.dstage\[5\].id.delayenb1/A VGND VGND VPWR
+ VPWR ringosc.dstage\[5\].id.delayen1/A sky130_fd_sc_hd__clkbuf_1
Xringosc.dstage\[1\].id.delayenb1 ringosc.dstage\[1\].id.delayenb1/A _351_/X VGND
+ VGND VPWR VPWR ringosc.dstage\[1\].id.delayen1/Z sky130_fd_sc_hd__einvn_2
XFILLER_12_16 VGND VGND VPWR VPWR sky130_fd_sc_hd__decap_3
XFILLER_12_49 VGND VGND VPWR VPWR sky130_fd_sc_hd__fill_2
XFILLER_27_90 VGND VGND VPWR VPWR sky130_fd_sc_hd__fill_2
X_340_ _279_/X _340_/A1 _354_/S VGND VGND VPWR VPWR _340_/X sky130_fd_sc_hd__mux2_1
X_271_ _362_/Q _272_/B _363_/Q _269_/Y _272_/D VGND VGND VPWR VPWR _362_/D sky130_fd_sc_hd__o221a_1
Xringosc.dstage\[1\].id.delayen0 ringosc.dstage\[1\].id.delayen0/A _350_/X VGND VGND
+ VPWR VPWR ringosc.dstage\[1\].id.delayen0/Z sky130_fd_sc_hd__einvp_1
X_254_ _244_/Y _253_/A _244_/A _253_/Y _236_/Y VGND VGND VPWR VPWR _254_/X sky130_fd_sc_hd__a221o_1
X_323_ _327_/A VGND VGND VPWR VPWR _323_/X sky130_fd_sc_hd__clkbuf_1
X_185_ _375_/Q _272_/D _360_/Q _226_/B VGND VGND VPWR VPWR _375_/D sky130_fd_sc_hd__a22o_1
X_306_ _327_/A VGND VGND VPWR VPWR _306_/X sky130_fd_sc_hd__clkbuf_1
X_168_ _359_/Q VGND VGND VPWR VPWR _267_/B sky130_fd_sc_hd__inv_2
X_237_ _365_/Q _220_/Y _224_/A _220_/A VGND VGND VPWR VPWR _237_/X sky130_fd_sc_hd__a22o_1
XFILLER_28_156 VGND VGND VPWR VPWR sky130_fd_sc_hd__decap_4
XFILLER_19_91 VGND VGND VPWR VPWR sky130_fd_sc_hd__decap_3
XFILLER_6_18 VGND VGND VPWR VPWR sky130_fd_sc_hd__decap_4
XFILLER_25_115 VGND VGND VPWR VPWR sky130_fd_sc_hd__decap_12
XPHY_132 VGND VPWR sky130_fd_sc_hd__tapvpwrvgnd_1
Xoutput37 output37/A VGND VGND VPWR VPWR clockp[1] sky130_fd_sc_hd__clkbuf_2
XPHY_121 VGND VPWR sky130_fd_sc_hd__tapvpwrvgnd_1
XPHY_110 VGND VPWR sky130_fd_sc_hd__tapvpwrvgnd_1
XPHY_1 VGND VGND VPWR VPWR sky130_fd_sc_hd__decap_3
XFILLER_7_50 VGND VGND VPWR VPWR sky130_fd_sc_hd__decap_6
XFILLER_26_15 VGND VGND VPWR VPWR sky130_fd_sc_hd__decap_12
XFILLER_7_94 VGND VGND VPWR VPWR sky130_fd_sc_hd__fill_2
XFILLER_8_144 VGND VGND VPWR VPWR sky130_fd_sc_hd__decap_12
XFILLER_12_28 VGND VGND VPWR VPWR sky130_fd_sc_hd__fill_1
XFILLER_5_103 VGND VGND VPWR VPWR sky130_fd_sc_hd__decap_6
X_270_ _164_/Y _269_/Y _226_/B VGND VGND VPWR VPWR _363_/D sky130_fd_sc_hd__a21oi_1
Xringosc.dstage\[1\].id.delayen1 ringosc.dstage\[1\].id.delayen1/A _351_/X VGND VGND
+ VPWR VPWR ringosc.dstage\[1\].id.delayen1/Z sky130_fd_sc_hd__einvp_1
XFILLER_4_95 VGND VGND VPWR VPWR sky130_fd_sc_hd__fill_2
Xringosc.dstage\[1\].id.delaybuf0 ringosc.dstage\[0\].id.delayen0/Z VGND VGND VPWR
+ VPWR ringosc.dstage\[1\].id.delayenb1/A sky130_fd_sc_hd__clkbuf_2
X_322_ _327_/A VGND VGND VPWR VPWR _322_/X sky130_fd_sc_hd__clkbuf_1
Xringosc.dstage\[4\].id.delayint0 ringosc.dstage\[4\].id.delayen1/Z VGND VGND VPWR
+ VPWR ringosc.dstage\[4\].id.delayen0/A sky130_fd_sc_hd__clkinv_1
X_253_ _253_/A VGND VGND VPWR VPWR _253_/Y sky130_fd_sc_hd__inv_2
X_184_ _376_/Q _272_/D _361_/Q _226_/B VGND VGND VPWR VPWR _376_/D sky130_fd_sc_hd__a22o_1
X_305_ _327_/A VGND VGND VPWR VPWR _305_/X sky130_fd_sc_hd__clkbuf_1
X_167_ _360_/Q VGND VGND VPWR VPWR _267_/A sky130_fd_sc_hd__inv_2
X_236_ _236_/A VGND VGND VPWR VPWR _236_/Y sky130_fd_sc_hd__inv_2
XFILLER_28_146 VGND VGND VPWR VPWR sky130_fd_sc_hd__decap_6
XFILLER_10_83 VGND VGND VPWR VPWR sky130_fd_sc_hd__decap_3
XFILLER_19_124 VGND VGND VPWR VPWR sky130_fd_sc_hd__decap_8
X_219_ _219_/A _219_/B VGND VGND VPWR VPWR _220_/A sky130_fd_sc_hd__or2_4
Xringosc.dstage\[9\].id.delayen0 ringosc.dstage\[9\].id.delayen0/A _334_/X VGND VGND
+ VPWR VPWR ringosc.dstage\[9\].id.delayen0/Z sky130_fd_sc_hd__einvp_2
XFILLER_25_127 VGND VGND VPWR VPWR sky130_fd_sc_hd__decap_3
XFILLER_16_105 VGND VGND VPWR VPWR sky130_fd_sc_hd__decap_4
XPHY_100 VGND VPWR sky130_fd_sc_hd__tapvpwrvgnd_1
XPHY_133 VGND VPWR sky130_fd_sc_hd__tapvpwrvgnd_1
XPHY_122 VGND VPWR sky130_fd_sc_hd__tapvpwrvgnd_1
XFILLER_21_82 VGND VGND VPWR VPWR sky130_fd_sc_hd__decap_12
XPHY_111 VGND VPWR sky130_fd_sc_hd__tapvpwrvgnd_1
XPHY_2 VGND VGND VPWR VPWR sky130_fd_sc_hd__decap_3
XFILLER_26_27 VGND VGND VPWR VPWR sky130_fd_sc_hd__fill_2
XFILLER_7_40 VGND VGND VPWR VPWR sky130_fd_sc_hd__decap_3
XFILLER_7_73 VGND VGND VPWR VPWR sky130_fd_sc_hd__fill_2
XFILLER_8_156 VGND VGND VPWR VPWR sky130_fd_sc_hd__decap_12
XFILLER_27_70 VGND VGND VPWR VPWR sky130_fd_sc_hd__fill_1
XFILLER_4_30 VGND VGND VPWR VPWR sky130_fd_sc_hd__fill_1
Xringosc.dstage\[1\].id.delaybuf1 ringosc.dstage\[1\].id.delayenb1/A VGND VGND VPWR
+ VPWR ringosc.dstage\[1\].id.delayen1/A sky130_fd_sc_hd__clkbuf_1
X_252_ _280_/B _220_/A _251_/X VGND VGND VPWR VPWR _253_/A sky130_fd_sc_hd__o21ai_1
X_321_ _327_/A VGND VGND VPWR VPWR _321_/X sky130_fd_sc_hd__clkbuf_1
X_183_ _377_/Q _272_/D _362_/Q _226_/B VGND VGND VPWR VPWR _377_/D sky130_fd_sc_hd__a22o_1
X_304_ _288_/A _239_/B _302_/B _370_/Q _232_/B VGND VGND VPWR VPWR _304_/X sky130_fd_sc_hd__o311a_1
X_235_ _301_/A _220_/Y _224_/X _234_/X VGND VGND VPWR VPWR _236_/A sky130_fd_sc_hd__o31a_4
X_166_ _361_/Q VGND VGND VPWR VPWR _267_/C sky130_fd_sc_hd__inv_2
X_218_ _164_/Y _165_/Y _216_/A _216_/B _214_/X VGND VGND VPWR VPWR _219_/B sky130_fd_sc_hd__o221ai_2
Xringosc.dstage\[9\].id.delayen1 ringosc.dstage\[9\].id.delayen1/A _335_/X VGND VGND
+ VPWR VPWR ringosc.dstage\[9\].id.delayen1/Z sky130_fd_sc_hd__einvp_1
XPHY_134 VGND VPWR sky130_fd_sc_hd__tapvpwrvgnd_1
XPHY_123 VGND VPWR sky130_fd_sc_hd__tapvpwrvgnd_1
XFILLER_21_94 VGND VGND VPWR VPWR sky130_fd_sc_hd__decap_12
XFILLER_21_50 VGND VGND VPWR VPWR sky130_fd_sc_hd__decap_3
XPHY_112 VGND VPWR sky130_fd_sc_hd__tapvpwrvgnd_1
XFILLER_16_117 VGND VGND VPWR VPWR sky130_fd_sc_hd__decap_12
XPHY_101 VGND VPWR sky130_fd_sc_hd__tapvpwrvgnd_1
XFILLER_15_161 VGND VGND VPWR VPWR sky130_fd_sc_hd__decap_6
XPHY_3 VGND VGND VPWR VPWR sky130_fd_sc_hd__decap_3
XFILLER_21_142 VGND VGND VPWR VPWR sky130_fd_sc_hd__decap_8
XFILLER_21_120 VGND VGND VPWR VPWR sky130_fd_sc_hd__decap_8
XFILLER_12_142 VGND VGND VPWR VPWR sky130_fd_sc_hd__fill_1
XFILLER_27_82 VGND VGND VPWR VPWR sky130_fd_sc_hd__decap_8
XFILLER_23_18 VGND VGND VPWR VPWR sky130_fd_sc_hd__decap_12
X_251_ _256_/A _256_/B VGND VGND VPWR VPWR _251_/X sky130_fd_sc_hd__or2_1
X_182_ _354_/S _182_/B VGND VGND VPWR VPWR _327_/A sky130_fd_sc_hd__nor2_8
X_320_ _327_/A VGND VGND VPWR VPWR _320_/X sky130_fd_sc_hd__clkbuf_1
XFILLER_1_130 VGND VGND VPWR VPWR sky130_fd_sc_hd__decap_3
XFILLER_27_6 VGND VGND VPWR VPWR sky130_fd_sc_hd__decap_12
X_303_ _297_/A _368_/Q _367_/Q _302_/X VGND VGND VPWR VPWR _303_/X sky130_fd_sc_hd__o31a_1
X_165_ _378_/Q VGND VGND VPWR VPWR _165_/Y sky130_fd_sc_hd__inv_2
X_234_ _219_/B _225_/Y _220_/A _233_/X _226_/X VGND VGND VPWR VPWR _234_/X sky130_fd_sc_hd__o221a_1
XFILLER_28_137 VGND VGND VPWR VPWR sky130_fd_sc_hd__fill_1
XFILLER_28_104 VGND VGND VPWR VPWR sky130_fd_sc_hd__decap_12
Xringosc.dstage\[0\].id.delayint0 ringosc.dstage\[0\].id.delayen1/Z VGND VGND VPWR
+ VPWR ringosc.dstage\[0\].id.delayen0/A sky130_fd_sc_hd__clkinv_1
Xringosc.iss.reseten0 ringosc.iss.const1/HI _182_/B VGND VGND VPWR VPWR ringosc.ibufp00/A
+ sky130_fd_sc_hd__einvp_4
X_217_ _201_/Y _203_/Y _205_/Y _211_/Y _216_/Y VGND VGND VPWR VPWR _219_/A sky130_fd_sc_hd__o221a_1
XFILLER_10_30 VGND VGND VPWR VPWR sky130_fd_sc_hd__decap_12
XFILLER_10_63 VGND VGND VPWR VPWR sky130_fd_sc_hd__decap_12
XFILLER_25_3 VGND VGND VPWR VPWR sky130_fd_sc_hd__decap_4
XPHY_124 VGND VPWR sky130_fd_sc_hd__tapvpwrvgnd_1
XFILLER_24_162 VGND VGND VPWR VPWR sky130_fd_sc_hd__decap_3
XPHY_113 VGND VPWR sky130_fd_sc_hd__tapvpwrvgnd_1
XFILLER_16_129 VGND VGND VPWR VPWR sky130_fd_sc_hd__fill_2
XPHY_102 VGND VPWR sky130_fd_sc_hd__tapvpwrvgnd_1
XPHY_4 VGND VGND VPWR VPWR sky130_fd_sc_hd__decap_3
XFILLER_7_86 VGND VGND VPWR VPWR sky130_fd_sc_hd__decap_8
XFILLER_16_95 VGND VGND VPWR VPWR sky130_fd_sc_hd__fill_1
XFILLER_27_61 VGND VGND VPWR VPWR sky130_fd_sc_hd__fill_2
Xringosc.dstage\[8\].id.delayenb0 ringosc.dstage\[8\].id.delayenb1/A _336_/X VGND
+ VGND VPWR VPWR ringosc.dstage\[8\].id.delayen0/Z sky130_fd_sc_hd__einvn_2
X_181_ _181_/A _181_/B VGND VGND VPWR VPWR _182_/B sky130_fd_sc_hd__nand2_4
X_250_ _301_/A _236_/A _249_/X VGND VGND VPWR VPWR _370_/D sky130_fd_sc_hd__o21ai_1
XFILLER_24_84 VGND VGND VPWR VPWR sky130_fd_sc_hd__fill_2
X_302_ _370_/Q _302_/B _302_/C VGND VGND VPWR VPWR _302_/X sky130_fd_sc_hd__and3_1
X_164_ _363_/Q VGND VGND VPWR VPWR _164_/Y sky130_fd_sc_hd__inv_2