*SPEF "IEEE 1481-1998"
*DESIGN "digital_pll"
*DATE "Tue Apr 27 00:09:47 2021"
*VENDOR "AUC CSCE Department"
*PROGRAM "SPEF Extractor"
*VERSION "1.0"
*DESIGN_FLOW "PIN_CAP NONE"
*DIVIDER /
*DELIMITER :
*BUS_DELIMITER []
*T_UNIT 1.00000 NS
*C_UNIT 1.00000 PF
*R_UNIT 1.00000 OHM
*L_UNIT 1.00000 HENRY


*NAME_MAP
*0 clockc
*1 clockd[0]
*2 clockd[1]
*3 clockd[2]
*4 clockd[3]
*5 clockp[0]
*6 clockp[1]
*7 dco
*8 div[0]
*9 div[1]
*10 div[2]
*11 div[3]
*12 div[4]
*13 ext_trim[0]
*14 ext_trim[10]
*15 ext_trim[11]
*16 ext_trim[12]
*17 ext_trim[13]
*18 ext_trim[14]
*19 ext_trim[15]
*20 ext_trim[16]
*21 ext_trim[17]
*22 ext_trim[18]
*23 ext_trim[19]
*24 ext_trim[1]
*25 ext_trim[20]
*26 ext_trim[21]
*27 ext_trim[22]
*28 ext_trim[23]
*29 ext_trim[24]
*30 ext_trim[25]
*31 ext_trim[2]
*32 ext_trim[3]
*33 ext_trim[4]
*34 ext_trim[5]
*35 ext_trim[6]
*36 ext_trim[7]
*37 ext_trim[8]
*38 ext_trim[9]
*39 extclk_sel
*40 osc
*41 reset
*42 sel[0]
*43 sel[1]
*44 sel[2]
*45 _000_
*46 _001_
*47 _002_
*48 _003_
*49 _004_
*50 _005_
*51 _006_
*52 _007_
*53 _008_
*54 _009_
*55 _010_
*56 _011_
*57 _012_
*58 _013_
*59 _014_
*60 _015_
*61 _016_
*62 _017_
*63 _018_
*64 _019_
*65 _020_
*66 _021_
*67 _022_
*68 _023_
*69 _024_
*70 _025_
*71 _026_
*72 _027_
*73 _028_
*74 _029_
*75 _030_
*76 _031_
*77 _032_
*78 _033_
*79 _034_
*80 _035_
*81 _036_
*82 _037_
*83 _038_
*84 _039_
*85 _040_
*86 _041_
*87 _042_
*88 _043_
*89 _044_
*90 _045_
*91 _046_
*92 _047_
*93 _048_
*94 _049_
*95 _050_
*96 _051_
*97 _052_
*98 _053_
*99 _054_
*100 _055_
*101 _056_
*102 _057_
*103 _058_
*104 _059_
*105 _060_
*106 _061_
*107 _062_
*108 _063_
*109 _064_
*110 _065_
*111 _066_
*112 _067_
*113 _068_
*114 _069_
*115 _070_
*116 _071_
*117 _072_
*118 _073_
*119 _074_
*120 _075_
*121 _076_
*122 _077_
*123 _078_
*124 _079_
*125 _080_
*126 _081_
*127 _082_
*128 _083_
*129 _084_
*130 _085_
*131 _086_
*132 _087_
*133 _088_
*134 _089_
*135 _090_
*136 _091_
*137 _092_
*138 _093_
*139 _094_
*140 _095_
*141 _096_
*142 _097_
*143 _098_
*144 _099_
*145 _100_
*146 _101_
*147 _102_
*148 _103_
*149 _104_
*150 _105_
*151 _106_
*152 _107_
*153 _108_
*154 _109_
*155 _110_
*156 _111_
*157 _112_
*158 _113_
*159 _114_
*160 _115_
*161 _116_
*162 _117_
*163 _118_
*164 _119_
*165 _120_
*166 _121_
*167 _122_
*168 _123_
*169 _124_
*170 _125_
*171 _126_
*172 _127_
*173 _128_
*174 _129_
*175 _130_
*176 _131_
*177 _132_
*178 _133_
*179 _134_
*180 _135_
*181 _136_
*182 _137_
*183 _138_
*184 _139_
*185 _140_
*186 _141_
*187 _142_
*188 _143_
*189 _144_
*190 _145_
*191 _146_
*192 _147_
*193 _148_
*194 _149_
*195 _150_
*196 _151_
*197 _152_
*198 _153_
*199 _154_
*200 _155_
*201 _156_
*202 _157_
*203 _158_
*204 _159_
*205 _160_
*206 _161_
*207 _162_
*208 _163_
*209 _164_
*210 _165_
*211 _166_
*212 _167_
*213 _168_
*214 _169_
*215 _170_
*216 _171_
*217 _172_
*218 _173_
*219 _174_
*220 _175_
*221 nint\[0\]
*222 nint\[1\]
*223 nint\[2\]
*224 nint\[3\]
*225 pll_control.clock
*226 pll_control.count0\[0\]
*227 pll_control.count0\[1\]
*228 pll_control.count0\[2\]
*229 pll_control.count0\[3\]
*230 pll_control.count0\[4\]
*231 pll_control.count1\[0\]
*232 pll_control.count1\[1\]
*233 pll_control.count1\[2\]
*234 pll_control.count1\[3\]
*235 pll_control.count1\[4\]
*236 pll_control.oscbuf\[0\]
*237 pll_control.oscbuf\[1\]
*238 pll_control.oscbuf\[2\]
*239 pll_control.prep\[0\]
*240 pll_control.prep\[1\]
*241 pll_control.prep\[2\]
*242 pll_control.tint\[0\]
*243 pll_control.tint\[1\]
*244 pll_control.tint\[2\]
*245 pll_control.tint\[3\]
*246 pll_control.tint\[4\]
*247 pll_control.tval\[0\]
*248 pll_control.tval\[1\]
*249 resetb
*250 ringosc.c\[0\]
*251 ringosc.c\[1\]
*252 ringosc.dstage\[0\].id.d0
*253 ringosc.dstage\[0\].id.d1
*254 ringosc.dstage\[0\].id.d2
*255 ringosc.dstage\[0\].id.in
*256 ringosc.dstage\[0\].id.out
*257 ringosc.dstage\[0\].id.trim\[0\]
*258 ringosc.dstage\[0\].id.trim\[1\]
*259 ringosc.dstage\[0\].id.ts
*260 ringosc.dstage\[10\].id.d0
*261 ringosc.dstage\[10\].id.d1
*262 ringosc.dstage\[10\].id.d2
*263 ringosc.dstage\[10\].id.in
*264 ringosc.dstage\[10\].id.out
*265 ringosc.dstage\[10\].id.trim\[0\]
*266 ringosc.dstage\[10\].id.trim\[1\]
*267 ringosc.dstage\[10\].id.ts
*268 ringosc.dstage\[11\].id.d0
*269 ringosc.dstage\[11\].id.d1
*270 ringosc.dstage\[11\].id.d2
*271 ringosc.dstage\[11\].id.out
*272 ringosc.dstage\[11\].id.trim\[0\]
*273 ringosc.dstage\[11\].id.trim\[1\]
*274 ringosc.dstage\[11\].id.ts
*275 ringosc.dstage\[1\].id.d0
*276 ringosc.dstage\[1\].id.d1
*277 ringosc.dstage\[1\].id.d2
*278 ringosc.dstage\[1\].id.out
*279 ringosc.dstage\[1\].id.trim\[0\]
*280 ringosc.dstage\[1\].id.trim\[1\]
*281 ringosc.dstage\[1\].id.ts
*282 ringosc.dstage\[2\].id.d0
*283 ringosc.dstage\[2\].id.d1
*284 ringosc.dstage\[2\].id.d2
*285 ringosc.dstage\[2\].id.out
*286 ringosc.dstage\[2\].id.trim\[0\]
*287 ringosc.dstage\[2\].id.trim\[1\]
*288 ringosc.dstage\[2\].id.ts
*289 ringosc.dstage\[3\].id.d0
*290 ringosc.dstage\[3\].id.d1
*291 ringosc.dstage\[3\].id.d2
*292 ringosc.dstage\[3\].id.out
*293 ringosc.dstage\[3\].id.trim\[0\]
*294 ringosc.dstage\[3\].id.trim\[1\]
*295 ringosc.dstage\[3\].id.ts
*296 ringosc.dstage\[4\].id.d0
*297 ringosc.dstage\[4\].id.d1
*298 ringosc.dstage\[4\].id.d2
*299 ringosc.dstage\[4\].id.out
*300 ringosc.dstage\[4\].id.trim\[0\]
*301 ringosc.dstage\[4\].id.trim\[1\]
*302 ringosc.dstage\[4\].id.ts
*303 ringosc.dstage\[5\].id.d0
*304 ringosc.dstage\[5\].id.d1
*305 ringosc.dstage\[5\].id.d2
*306 ringosc.dstage\[5\].id.out
*307 ringosc.dstage\[5\].id.trim\[0\]
*308 ringosc.dstage\[5\].id.trim\[1\]
*309 ringosc.dstage\[5\].id.ts
*310 ringosc.dstage\[6\].id.d0
*311 ringosc.dstage\[6\].id.d1
*312 ringosc.dstage\[6\].id.d2
*313 ringosc.dstage\[6\].id.out
*314 ringosc.dstage\[6\].id.trim\[0\]
*315 ringosc.dstage\[6\].id.trim\[1\]
*316 ringosc.dstage\[6\].id.ts
*317 ringosc.dstage\[7\].id.d0
*318 ringosc.dstage\[7\].id.d1
*319 ringosc.dstage\[7\].id.d2
*320 ringosc.dstage\[7\].id.out
*321 ringosc.dstage\[7\].id.trim\[0\]
*322 ringosc.dstage\[7\].id.trim\[1\]
*323 ringosc.dstage\[7\].id.ts
*324 ringosc.dstage\[8\].id.d0
*325 ringosc.dstage\[8\].id.d1
*326 ringosc.dstage\[8\].id.d2
*327 ringosc.dstage\[8\].id.out
*328 ringosc.dstage\[8\].id.trim\[0\]
*329 ringosc.dstage\[8\].id.trim\[1\]
*330 ringosc.dstage\[8\].id.ts
*331 ringosc.dstage\[9\].id.d0
*332 ringosc.dstage\[9\].id.d1
*333 ringosc.dstage\[9\].id.d2
*334 ringosc.dstage\[9\].id.trim\[0\]
*335 ringosc.dstage\[9\].id.trim\[1\]
*336 ringosc.dstage\[9\].id.ts
*337 ringosc.iss.ctrl0
*338 ringosc.iss.d0
*339 ringosc.iss.d1
*340 ringosc.iss.d2
*341 ringosc.iss.one
*342 ringosc.iss.reset
*343 ringosc.iss.trim\[0\]
*344 ringosc.iss.trim\[1\]
*345 net1
*346 net2
*347 net3
*348 net4
*349 net5
*350 net6
*351 net7
*352 net8
*353 net9
*354 net10
*355 net11
*356 net12
*357 net13
*358 net14
*359 net15
*360 net16
*361 net17
*362 net18
*363 net19
*364 net20
*365 net21
*366 net22
*367 net23
*368 net24
*369 net25
*370 net26
*371 net27
*372 net28
*373 net29
*374 net30
*375 net31
*376 net32
*377 net33
*378 net34
*379 net35
*380 net36
*381 net37
*382 net38
*383 net39
*384 net40
*385 net41
*386 net42
*387 net43
*388 net44
*389 net45
*390 net46

*D_NET *0 0.00038345459844
*CONN
*P clockc O
*I output39:X O
*CAP
0 *0:1 0.0003596407917
1 *0:3 2.3813806740000006e-05
2 *0:4 0
3 output39:X 0
*RES
0 *0:1 *0:2 0.6125666666666667
1 *0:3 *0:4 0.15178571428571427
2 *0:4 *0:2 0
3 output39:X output39:X 0
4 output39:X *0:3 0
*END

*D_NET *1 0.00052880223256
*CONN
*P clockd[0] O
*I output40:X O
*CAP
4 *1:1 0.00012974410066
5 *1:3 0.00039905813189999997
6 output40:X 0
7 *1:2 0
*RES
5 *1:1 *1:2 1.3660714285714284
6 *1:3 *1:4 0.6846333333333334
7 output40:X output40:X 0
8 output40:X *1:1 0
9 *1:2 *1:4 0
*END

*D_NET *2 0.00042287193864
*CONN
*P clockd[1] O
*I output41:X O
*CAP
8 *2:1 2.3813806740000006e-05
9 *2:3 0.00039905813189999997
10 output41:X 0
11 *2:2 0
*RES
10 *2:1 *2:2 0.15178571428571427
11 *2:3 *2:4 0.6846333333333334
12 output41:X output41:X 0
13 output41:X *2:1 0
14 *2:2 *2:4 0
*END

*D_NET *3 0.00052818919252
*CONN
*P clockd[2] O
*I output42:X O
*CAP
12 *3:1 5.029638022e-05
13 *3:3 0.0004778928123
14 output42:X 0
15 *3:2 0
*RES
15 *3:1 *3:2 0.45535714285714285
16 *3:3 *3:4 0.8287666666666667
17 output42:X output42:X 0
18 output42:X *3:1 0
19 *3:2 *3:3 0
*END

*D_NET *4 0.00063291299678
*CONN
*P clockd[3] O
*I output43:X O
*CAP
16 *4:1 0.00063291299678
17 output43:X 0
*RES
20 *4:1 *4:2 7.133928571428571
21 output43:X output43:X 0
22 output43:X *4:2 0
*END

*D_NET *5 0.00058176737952
*CONN
*P clockp[0] O
*I output44:X O
*CAP
18 *5:1 0.00018270924762000003
19 *5:3 0.00039905813189999997
20 output44:X 0
21 *5:2 0
*RES
23 *5:1 *5:2 1.9732142857142856
24 *5:3 *5:4 0.6846333333333334
25 output44:X output44:X 0
26 output44:X *5:1 0
27 *5:2 *5:4 0
*END

*D_NET *6 0.00063291299678
*CONN
*P clockp[1] O
*I output45:X O
*CAP
22 *6:1 0.00063291299678
23 output45:X 0
*RES
28 *6:1 *6:2 7.133928571428571
29 output45:X output45:X 0
30 output45:X *6:2 0
*END

*D_NET *7 0.0007362186727000002
*CONN
*P dco I
*I input1:A I
*CAP
24 *7:1 0.0006858781437400002
25 input1:A 5.034052896000001e-05
*RES
31 *7:1 *7:2 7.741071428571428
32 input1:A input1:A 0.4107142857142857
33 input1:A *7:2 0
34 input1:A input1:A 0
*END

*D_NET *8 0.00119636923312
*CONN
*P div[0] I
*I input2:A I
*CAP
26 *8:1 0.0002062676048
27 *8:2 0.00031512211502
28 *8:4 0.0006749795133
29 input2:A 0
*RES
35 *8:1 input2:A 2.0535714285714284
36 *8:2 *8:3 3.4910714285714284
37 *8:4 *8:5 1.1891
38 input2:A input2:A 0
39 *8:1 *8:3 0
40 *8:2 *8:4 0
*END

*D_NET *9 0.0011999625094600002
*CONN
*P div[1] I
*I input3:A I
*CAP
30 *9:1 0.00024524937376
31 *9:2 5.029638022e-05
32 *9:4 0.0009044167554800002
33 input3:A 0
*RES
41 *9:1 input3:A 2.464285714285714
42 *9:2 *9:3 0.45535714285714285
43 *9:4 *9:3 0.4107142857142857
44 *9:4 *9:5 9.714285714285714
45 input3:A input3:A 0
46 *9:1 *9:2 0
*END

*D_NET *10 0.0007733443785
*CONN
*P div[2] I
*I input4:A I
*CAP
34 *10:1 2.3813806740000006e-05
35 *10:3 0.00021586984500000003
36 *10:4 4.640188412000001e-05
37 *10:5 0.00048725884264
38 input4:A 0
*RES
47 *10:1 *10:2 0.15178571428571427
48 *10:3 *10:2 0.4107142857142857
49 *10:3 *10:4 1.8214285714285714
50 *10:4 *10:5 0.4107142857142857
51 *10:5 *10:6 5.4642857142857135
52 input4:A input4:A 0
53 input4:A *10:1 0
*END

*D_NET *11 0.0012724326077000001
*CONN
*P div[3] I
*I input5:A I
*CAP
39 *11:1 0.0008712561581000002
40 *11:3 0.00040117644959999997
41 input5:A 0
*RES
54 *11:1 *11:2 9.866071428571429
55 *11:3 input5:A 4.107142857142857
56 *11:3 *11:2 0
57 input5:A input5:A 0
*END

*D_NET *12 0.0008446740412600001
*CONN
*P div[4] I
*I input6:A I
*CAP
42 *12:1 0.00012830406688
43 *12:2 0.00018270924762000003
44 *12:3 4.640188412000001e-05
45 *12:4 0.00048725884264
46 input6:A 0
*RES
58 *12:1 input6:A 1.232142857142857
59 *12:2 *12:3 1.9732142857142856
60 *12:3 *12:4 0.4107142857142857
61 *12:4 *12:5 5.4642857142857135
62 input6:A input6:A 0
63 *12:1 *12:2 0
*END

*D_NET *13 0.0010215902509
*CONN
*P ext_trim[0] I
*I input7:A I
*CAP
47 *13:1 0.0003621946806399999
48 *13:2 0.00065939557026
49 input7:A 0
*RES
64 *13:1 input7:A 3.6964285714285707
65 *13:2 *13:3 7.437499999999999
66 input7:A input7:A 0
67 *13:1 *13:2 0
*END

*D_NET *14 0.0010480728243800002
*CONN
*P ext_trim[10] I
*I input8:A I
*CAP
50 *14:1 0.0006858781437400002
51 input8:A 0.0003621946806399999
52 *14:3 0
*RES
68 *14:1 *14:2 7.741071428571428
69 input8:A *14:3 3.6964285714285707
70 *14:3 *14:2 0
71 input8:A input8:A 0
*END

*D_NET *15 0.00065939557026
*CONN
*P ext_trim[11] I
*I input9:A I
*CAP
53 *15:1 0.00065939557026
54 input9:A 0
*RES
72 *15:1 *15:2 7.437499999999999
73 input9:A input9:A 0
74 input9:A *15:1 0
*END

*D_NET *16 0.000554671766
*CONN
*P ext_trim[12] I
*I input10:A I
*CAP
55 *16:1 7.67789537e-05
56 *16:3 0.0004778928123
57 input10:A 0
58 *16:2 0
*RES
75 *16:1 *16:2 0.7589285714285713
76 *16:3 *16:4 0.8287666666666667
77 input10:A input10:A 0
78 input10:A *16:1 0
79 *16:2 *16:3 0
*END

*D_NET *17 0.0007362186727000002
*CONN
*P ext_trim[13] I
*I input11:A I
*CAP
59 *17:1 0.0006858781437400002
60 input11:A 5.034052896000001e-05
61 *17:3 0
*RES
80 *17:1 *17:2 7.741071428571428
81 input11:A *17:3 0.4107142857142857
82 *17:3 *17:2 0
83 input11:A input11:A 0
*END

*D_NET *18 0.0012724326077000001
*CONN
*P ext_trim[14] I
*I input12:A I
*CAP
62 *18:1 0.0008712561581000002
63 *18:3 0.00040117644959999997
64 input12:A 0
*RES
84 *18:1 *18:2 9.866071428571429
85 *18:3 input12:A 4.107142857142857
86 *18:3 *18:2 0
87 input12:A input12:A 0
*END

*D_NET *19 0.0015142357375599997
*CONN
*P ext_trim[15] I
*I input13:A I
*CAP
65 *19:1 0.00012974410066
66 *19:3 0.0013844916368999996
67 input13:A 0
*RES
88 *19:1 *19:2 1.3660714285714284
89 *19:3 *19:4 2.4863
90 input13:A input13:A 0
91 input13:A *19:2 0
92 *19:1 *19:3 0
*END

*D_NET *20 0.00090464494402
*CONN
*P ext_trim[16] I
*I input14:A I
*CAP
68 *20:1 0.00024524937376
69 *20:2 0.00065939557026
70 input14:A 0
*RES
93 *20:1 input14:A 2.464285714285714
94 *20:2 *20:3 7.437499999999999
95 input14:A input14:A 0
96 *20:1 *20:2 0
*END

*D_NET *21 0.0006747629067200001
*CONN
*P ext_trim[17] I
*I input15:A I
*CAP
71 *21:1 0.0003596407917
72 *21:3 0.00031512211502
73 input15:A 0
*RES
97 *21:1 *21:2 0.6125666666666667
98 *21:3 *21:4 3.4910714285714284
99 *21:3 *21:2 0
100 input15:A input15:A 0
101 input15:A *21:4 0
*END

*D_NET *22 0.00065939557026
*CONN
*P ext_trim[18] I
*I input16:A I
*CAP
74 *22:1 0.00065939557026
75 input16:A 0
*RES
102 *22:1 *22:2 7.437499999999999
103 input16:A input16:A 0
104 input16:A *22:1 0
*END

*D_NET *23 0.00052818919252
*CONN
*P ext_trim[19] I
*I input17:A I
*CAP
76 *23:1 5.029638022e-05
77 *23:3 0.0004778928123
78 input17:A 0
79 *23:2 0
*RES
105 *23:1 *23:2 0.45535714285714285
106 *23:3 *23:4 0.8287666666666667
107 input17:A input17:A 0
108 input17:A *23:1 0
109 *23:2 *23:3 0
*END

*D_NET *24 0.00106057201986
*CONN
*P ext_trim[1] I
*I input18:A I
*CAP
80 *24:1 0.00065939557026
81 *24:3 0.00040117644959999997
82 input18:A 0
*RES
110 *24:1 *24:2 7.437499999999999
111 *24:3 input18:A 4.107142857142857
112 input18:A input18:A 0
113 *24:3 *24:1 0
*END

*D_NET *25 0.00074871786818
*CONN
*P ext_trim[20] I
*I input19:A I
*CAP
83 *25:1 8.932229792e-05
84 *25:2 0.00065939557026
85 input19:A 0
*RES
114 *25:1 input19:A 0.8214285714285714
115 *25:2 *25:3 7.437499999999999
116 input19:A input19:A 0
117 *25:1 *25:2 0
*END

*D_NET *26 0.0004364197454
*CONN
*P ext_trim[21] I
*I input20:A I
*CAP
86 *26:1 0.0003596407917
87 *26:3 7.67789537e-05
88 input20:A 0
*RES
118 *26:1 *26:2 0.6125666666666667
119 *26:3 *26:4 0.7589285714285713
120 *26:3 *26:2 0
121 input20:A input20:A 0
122 input20:A *26:4 0
*END

*D_NET *27 0.00233671508386
*CONN
*P ext_trim[22] I
*I input21:A I
*CAP
89 *27:1 0.0009109800183200002
90 *27:3 0.00024524937376
91 *27:4 0.00081829101114
92 *27:6 0.0003621946806399999
93 *27:7 0
94 input21:A 0
*RES
123 *27:1 *27:2 10.321428571428571
124 *27:3 input21:A 2.464285714285714
125 *27:4 *27:5 9.25892857142857
126 *27:6 *27:7 3.6964285714285707
127 *27:7 *27:1 0
128 *27:3 *27:2 0
129 input21:A input21:A 0
130 *27:6 *27:5 0
*END

*D_NET *28 0.0015912363088
*CONN
*P ext_trim[23] I
*I input22:A I
*CAP
95 *28:1 8.932229792e-05
96 *28:2 0.00023567439458000006
97 *28:4 0.0012662396163
98 input22:A 0
99 *28:3 0
*RES
131 *28:1 input22:A 0.8214285714285714
132 *28:2 *28:3 2.580357142857143
133 *28:4 *28:5 2.2701000000000002
134 input22:A input22:A 0
135 *28:1 *28:2 0
136 *28:3 *28:4 0
*END

*D_NET *29 0.0019588318789799998
*CONN
*P ext_trim[24] I
*I input23:A I
*CAP
100 *29:1 0.00011806061236
101 *29:3 0.0004791399875199999
102 input23:A 4.017137184e-05
103 *29:5 0.0013214599072599999
104 *29:4 0
*RES
137 *29:1 *29:2 1.232142857142857
138 *29:3 *29:4 4.928571428571428
139 input23:A *29:3 0.30357142857142855
140 *29:5 *29:2 15.026785714285712
141 *29:4 *29:1 0
142 input23:A input23:A 0
*END

*D_NET *30 0.00162000558366
*CONN
*P ext_trim[25] I
*I input24:A I
*CAP
105 input24:A 4.017137184e-05
106 *30:2 0.0009469212150399999
107 *30:3 0.00063291299678
*RES
143 input24:A *30:1 0.30357142857142855
144 *30:2 *30:1 9.857142857142856
145 *30:3 *30:4 7.133928571428571
146 input24:A input24:A 0
147 *30:2 *30:3 0
*END

*D_NET *31 0.0006858781437400002
*CONN
*P ext_trim[2] I
*I input25:A I
*CAP
108 *31:1 0.0006858781437400002
109 input25:A 0
*RES
148 *31:1 *31:2 7.741071428571428
149 input25:A input25:A 0
150 input25:A *31:2 0
*END

*D_NET *32 0.00050170661904
*CONN
*P ext_trim[3] I
*I input26:A I
*CAP
110 *32:1 2.3813806740000006e-05
111 *32:3 0.0004778928123
112 input26:A 0
113 *32:2 0
*RES
151 *32:1 *32:2 0.15178571428571427
152 *32:3 *32:4 0.8287666666666667
153 input26:A input26:A 0
154 input26:A *32:1 0
155 *32:2 *32:3 0
*END

*D_NET *33 0.0013600721591600002
*CONN
*P ext_trim[4] I
*I input27:A I
*CAP
114 input27:A 5.034052896000001e-05
115 *33:2 0.0008712561581000002
116 *33:4 0.00043847547209999995
117 *33:1 0
*RES
156 input27:A *33:1 0.4107142857142857
157 *33:2 *33:3 9.866071428571429
158 *33:4 *33:5 0.7567
159 input27:A input27:A 0
160 *33:1 *33:3 0
161 *33:2 *33:4 0
*END

*D_NET *34 0.00089894522124
*CONN
*P ext_trim[5] I
*I input28:A I
*CAP
118 *34:1 0.00042105240893999997
119 *34:3 0.0004778928123
120 input28:A 0
121 *34:2 0
*RES
162 *34:1 *34:2 4.705357142857142
163 *34:3 *34:4 0.8287666666666667
164 input28:A input28:A 0
165 input28:A *34:1 0
166 *34:2 *34:3 0
*END

*D_NET *35 0.0004364197454
*CONN
*P ext_trim[6] I
*I input29:A I
*CAP
122 *35:1 0.0003596407917
123 *35:3 7.67789537e-05
124 *35:4 0
125 input29:A 0
*RES
167 *35:1 *35:2 0.6125666666666667
168 *35:3 *35:4 0.7589285714285713
169 *35:4 *35:2 0
170 input29:A input29:A 0
171 input29:A *35:3 0
*END

*D_NET *36 0.0021578995349
*CONN
*P ext_trim[7] I
*I input30:A I
*CAP
126 *36:1 0.0009242213050600002
127 *36:3 0.0002753982548
128 *36:5 8.932229792e-05
129 *36:6 0.00086895767712
130 *36:7 0
131 input30:A 0
*RES
172 *36:1 *36:2 10.473214285714285
173 *36:3 *36:4 3.035714285714285
174 *36:5 input30:A 0.8214285714285714
175 *36:6 *36:7 9.035714285714285
176 *36:6 *36:1 0
177 *36:7 *36:3 0
178 *36:5 *36:4 0
179 input30:A input30:A 0
*END

*D_NET *37 0.00062179775976
*CONN
*P ext_trim[8] I
*I input31:A I
*CAP
132 *37:1 0.0003596407917
133 *37:3 0.00026215696806
134 *37:4 0
135 input31:A 0
*RES
180 *37:1 *37:2 0.6125666666666667
181 *37:3 *37:4 2.883928571428571
182 *37:4 *37:2 0
183 input31:A input31:A 0
184 input31:A *37:3 0
*END

*D_NET *38 0.00079301492732
*CONN
*P ext_trim[9] I
*I input32:A I
*CAP
136 *38:1 0.00031512211502
137 *38:3 0.0004778928123
138 input32:A 0
*RES
185 *38:1 *38:2 3.4910714285714284
186 *38:3 *38:4 0.8287666666666667
187 input32:A input32:A 0
188 input32:A *38:2 0
189 *38:1 *38:3 0
*END

*D_NET *39 0.00038345459844
*CONN
*P extclk_sel I
*I input33:A I
*CAP
139 *39:1 0.0003596407917
140 *39:3 2.3813806740000006e-05
141 *39:4 0
142 input33:A 0
*RES
190 *39:1 *39:2 0.6125666666666667
191 *39:3 *39:4 0.15178571428571427
192 *39:4 *39:2 0
193 input33:A input33:A 0
194 input33:A *39:3 0
*END

*D_NET *40 0.00074871786818
*CONN
*P osc I
*I input34:A I
*CAP
143 *40:1 8.932229792e-05
144 *40:2 0.00065939557026
145 input34:A 0
*RES
195 *40:1 input34:A 0.8214285714285714
196 *40:2 *40:3 7.437499999999999
197 input34:A input34:A 0
198 *40:1 *40:2 0
*END

*D_NET *41 0.0006858781437400002
*CONN
*P reset I
*I input35:A I
*CAP
146 *41:1 0.0006858781437400002
147 input35:A 0
*RES
199 *41:1 *41:2 7.741071428571428
200 input35:A input35:A 0
201 input35:A *41:2 0
*END

*D_NET *42 0.0008951141135800001
*CONN
*P sel[0] I
*I input36:A I
*CAP
148 *42:1 5.034052896000001e-05
149 *42:2 0.0008447735846200001
150 input36:A 0
*RES
202 *42:1 input36:A 0.4107142857142857
203 *42:2 *42:3 9.5625
204 *42:1 *42:3 0
205 input36:A input36:A 0
*END

*D_NET *43 0.0009171441395
*CONN
*P sel[1] I
*I input37:A I
*CAP
151 input37:A 0.00028423114272
152 *43:2 0.00063291299678
153 *43:1 0
*RES
206 input37:A *43:1 2.875
207 *43:2 *43:3 7.133928571428571
208 input37:A input37:A 0
209 *43:1 *43:2 0
*END

*D_NET *44 0.00115251893578
*CONN
*P sel[2] I
*I input38:A I
*CAP
154 *44:1 0.0007123607172200001
155 *44:3 0.00044015821855999997
156 input38:A 0
*RES
210 *44:1 *44:2 8.044642857142856
211 *44:3 input38:A 4.517857142857142
212 *44:3 *44:2 0
213 input38:A input38:A 0
*END

*D_NET *45 0.00119321227836
*CONN
*I _380_:A1 I
*I _292_:B I
*I _290_:X O
*CAP
157 *45:1 0.00019595053436
158 _380_:A1 0.00040117644959999997
159 *45:3 0.0005960852944
160 _292_:B 0
161 _290_:X 0
*RES
214 *45:1 *45:2 2.1249999999999996
215 _380_:A1 *45:3 4.107142857142857
216 *45:3 _292_:B 6.160714285714286
217 _292_:B _292_:B 0
218 _290_:X _290_:X 0
219 _290_:X *45:1 0
220 *45:3 *45:2 0
221 _380_:A1 _380_:A1 0
*END

*D_NET *46 0.00041471733464000006
*CONN
*I _376_:A0 I
*I _292_:X O
*CAP
162 *46:1 0.00024524937376
163 *46:2 0.00016946796088000002
164 _376_:A0 0
165 _292_:X 0
*RES
222 *46:1 _376_:A0 2.464285714285714
223 *46:2 *46:3 1.8214285714285714
224 _376_:A0 _376_:A0 0
225 *46:1 *46:2 0
226 _292_:X _292_:X 0
227 _292_:X *46:3 0
*END

*D_NET *47 0.0027460306016
*CONN
*I _374_:A0 I
*I _307_:B1 I
*I _299_:Y O
*CAP
166 _299_:Y 0.00050914220224
167 *47:1 4.017137184e-05
168 *47:2 0.00125877536672
169 *47:3 0.0009379416608
170 _374_:A0 0
171 _307_:B1 0
*RES
228 _299_:Y *47:1 4.517857142857142
229 *47:1 *47:2 0.30357142857142855
230 *47:2 _374_:A0 13.142857142857142
231 *47:3 _307_:B1 0.6071428571428571
232 *47:3 _299_:Y 9.035714285714285
233 _299_:Y _299_:Y 0.6071428571428571
234 _299_:Y _299_:Y 0
235 _374_:A0 _374_:A0 0
236 _307_:B1 _307_:B1 0
*END

*D_NET *48 0.0021668345292800003
*CONN
*I _372_:A0 I
*I _307_:A3 I
*I _304_:B1 I
*I _297_:A I
*I _296_:X O
*CAP
172 *48:1 0.00016728583584
173 *48:2 5.034052896000001e-05
174 *48:3 0.0008050497244000001
175 *48:5 0.0002062676048
176 *48:4 0.0002753982548
177 _296_:X 5.034052896000001e-05
178 *48:7 0.00016728583584
179 *48:8 0.00024891568132000004
180 *48:9 0.00019595053436
181 _304_:B1 0
182 _307_:A3 0
183 _372_:A0 0
184 _297_:A 0
*RES
237 *48:1 _304_:B1 1.6428571428571428
238 *48:2 _307_:A3 0.4107142857142857
239 *48:3 *48:4 9.107142857142856
240 *48:5 _296_:X 2.0535714285714284
241 *48:4 *48:6 3.035714285714285
242 _296_:X _296_:X 0.4107142857142857
243 *48:7 _297_:A 1.6428571428571428
244 *48:8 *48:9 2.7321428571428568
245 *48:9 *48:10 2.1249999999999996
246 _304_:B1 _304_:B1 0
247 *48:1 *48:10 0
248 _307_:A3 _307_:A3 0
249 *48:2 *48:4 0
250 _372_:A0 _372_:A0 0
251 _372_:A0 *48:3 0
252 _296_:X _296_:X 0
253 *48:5 *48:6 0
254 _296_:X *48:9 0
255 _297_:A _297_:A 0
256 *48:7 *48:8 0
*END

*D_NET *49 0.0006250937399600001
*CONN
*I _370_:A0 I
*I _291_:X O
*CAP
185 *49:1 0.00030188082828000006
186 _291_:X 0.00032321291168
187 _370_:A0 0
188 *49:3 0
*RES
257 *49:1 *49:2 3.339285714285714
258 _291_:X *49:3 3.2857142857142856
259 _370_:A0 _370_:A0 0
260 _370_:A0 *49:1 0
261 *49:3 *49:2 0
262 _291_:X _291_:X 0
*END

*D_NET *50 0.0023773961372
*CONN
*I _368_:A0 I
*I _302_:Y O
*CAP
189 _368_:A0 8.932229792e-05
190 *50:2 0.00228807383928
191 *50:1 0
192 _302_:Y 0
*RES
263 _368_:A0 *50:1 0.8214285714285714
264 *50:2 *50:3 26.107142857142854
265 _368_:A0 _368_:A0 0
266 *50:1 *50:2 0
267 _302_:Y _302_:Y 0
268 _302_:Y *50:3 0
*END

*D_NET *51 0.00032440251456
*CONN
*I _366_:A0 I
*I _304_:X O
*CAP
193 *51:1 0.00032440251456
194 _304_:X 0
195 _366_:A0 0
*RES
269 *51:1 _304_:X 2.875
270 *51:1 _366_:A0 0.30357142857142855
271 _304_:X _304_:X 0
272 _366_:A0 _366_:A0 0
*END

*D_NET *52 0.0011413875668800002
*CONN
*I _364_:A0 I
*I _293_:X O
*CAP
196 *52:1 0.00011650281392
197 _364_:A0 0.0010248847529600001
198 _293_:X 0
199 *52:3 0
*RES
273 *52:1 *52:2 1.2142857142857142
274 _364_:A0 *52:3 10.678571428571429
275 _364_:A0 _364_:A0 0
276 _293_:X _293_:X 0
277 _293_:X *52:1 0
278 *52:3 *52:2 0
*END

*D_NET *53 0.00177142551476
*CONN
*I _362_:A0 I
*I _305_:X O
*CAP
200 *53:1 0.00087014728
201 _362_:A0 0.00028423114272
202 *53:4 5.034052896000001e-05
203 *53:5 0.00056670656308
204 *53:3 0
205 _305_:X 0
*RES
279 *53:1 *53:2 0.30357142857142855
280 _362_:A0 *53:2 2.875
281 *53:1 *53:3 8.625
282 *53:4 _305_:X 0.4107142857142857
283 *53:5 *53:6 6.374999999999999
284 _362_:A0 _362_:A0 0
285 *53:3 *53:6 0
286 _305_:X _305_:X 0
287 *53:4 *53:5 0
*END

*D_NET *54 0.00080305084172
*CONN
*I _360_:A0 I
*I _303_:X O
*CAP
206 *54:1 9.002024044000002e-05
207 *54:3 0.00071303060128
208 _360_:A0 0
209 _303_:X 0
*RES
288 *54:1 *54:2 0.9107142857142857
289 *54:3 _303_:X 7.3928571428571415
290 _360_:A0 _360_:A0 0
291 _360_:A0 *54:1 0
292 *54:3 *54:2 0
293 _303_:X _303_:X 0
*END

*D_NET *55 0.006328931094599999
*CONN
*I _358_:A0 I
*I _301_:Y O
*CAP
210 *55:1 0.0005972748972799999
211 *55:3 0.0031688820457599996
212 *55:4 8.932229792e-05
213 *55:5 0.00247345185364
214 _358_:A0 0
215 _301_:Y 0
*RES
294 *55:1 *55:2 0.30357142857142855
295 *55:1 _358_:A0 5.75
296 *55:3 *55:2 33.26785714285714
297 *55:4 _301_:Y 0.8214285714285714
298 *55:5 *55:6 28.232142857142854
299 *55:3 *55:5 0
300 _358_:A0 _358_:A0 0
301 *55:4 *55:6 0
302 _301_:Y _301_:Y 0
*END

*D_NET *56 0.0022143918958
*CONN
*I _356_:A0 I
*I _306_:X O
*CAP
216 *56:1 0.00012830406688
217 *56:2 8.932229792e-05
218 *56:3 0.0019967655310000002
219 _356_:A0 0
220 _306_:X 0
*RES
303 *56:1 _356_:A0 1.232142857142857
304 *56:2 _306_:X 0.8214285714285714
305 *56:3 *56:4 22.767857142857142
306 _356_:A0 _356_:A0 0
307 *56:1 *56:3 0
308 *56:2 *56:4 0
309 _306_:X _306_:X 0
*END

*D_NET *57 0.00045666746863999997
*CONN
*I _354_:A0 I
*I _307_:X O
*CAP
221 *57:1 0.00032836340175999997
222 *57:3 0.00012830406688
223 _354_:A0 0
224 _307_:X 0
*RES
310 *57:1 *57:2 3.642857142857143
311 *57:3 _307_:X 1.232142857142857
312 _354_:A0 _354_:A0 0
313 _354_:A0 *57:1 0
314 *57:3 *57:2 0
315 _307_:X _307_:X 0
*END

*D_NET *58 0.0030404665326
*CONN
*I _378_:A0 I
*I _303_:B1 I
*I _300_:Y O
*CAP
225 *58:1 8.932229792e-05
226 *58:2 0.0015730443553200002
227 _300_:Y 8.932229792e-05
228 *58:5 0.00128877758144
229 _378_:A0 0
230 *58:4 0
231 _303_:B1 0
232 *58:6 0
*RES
316 *58:1 _378_:A0 0.8214285714285714
317 *58:2 *58:3 17.91071428571428
318 _300_:Y *58:4 0.8214285714285714
319 *58:5 _303_:B1 0.6071428571428571
320 *58:5 *58:6 12.732142857142856
321 _378_:A0 _378_:A0 0
322 *58:1 *58:2 0
323 *58:4 *58:3 0
324 _300_:Y _300_:Y 0
325 _303_:B1 _303_:B1 0
326 *58:6 *58:7 0
*END

*D_NET *59 0.00053349057108
*CONN
*I _377_:A0 I
*I _308_:X O
*CAP
233 _377_:A0 0.00012830406688
234 *59:2 0.00035484597524
235 *59:4 5.034052896000001e-05
236 *59:1 0
237 _308_:X 0
*RES
327 _377_:A0 *59:1 1.232142857142857
328 *59:2 *59:3 3.946428571428571
329 *59:4 _308_:X 0.4107142857142857
330 _377_:A0 _377_:A0 0
331 *59:1 *59:2 0
332 *59:4 *59:3 0
333 _308_:X _308_:X 0
*END

*D_NET *60 0.00102330182452
*CONN
*I _380_:A0 I
*I _313_:B I
*I _309_:X O
*CAP
238 _309_:X 0.00071303060128
239 *60:1 0.00014298538739999998
240 _380_:A0 0.00016728583584
241 _313_:B 0
242 *60:3 0
*RES
334 _309_:X _380_:A0 7.3928571428571415
335 *60:1 *60:2 1.5178571428571426
336 _380_:A0 *60:3 1.6428571428571428
337 _380_:A0 _380_:A0 0
338 _309_:X _309_:X 0
339 _313_:B _313_:B 0
340 _313_:B *60:2 0
341 *60:3 *60:1 0
*END

*D_NET *61 0.0024391938699599995
*CONN
*I _375_:A0 I
*I _316_:X O
*CAP
243 *61:1 0.0002062676048
244 *61:2 0.00014298538739999998
245 *61:4 0.00161080089024
246 _316_:X 0.0004791399875199999
247 _375_:A0 0
248 *61:6 0
*RES
342 *61:1 _375_:A0 2.0535714285714284
343 *61:2 *61:3 1.5178571428571426
344 *61:4 *61:5 0.30357142857142855
345 _316_:X *61:5 4.928571428571428
346 *61:4 *61:6 16.428571428571427
347 _375_:A0 _375_:A0 0
348 *61:1 *61:2 0
349 *61:6 *61:3 0
350 _316_:X _316_:X 0
*END

*D_NET *62 0.00332704124992
*CONN
*I _373_:A0 I
*I _317_:X O
*CAP
249 *62:1 6.898398368e-05
250 *62:2 0.00026474025824
251 *62:3 4.017137184e-05
252 *62:4 0.00073371108864
253 *62:6 0.0010248847529600001
254 *62:7 4.017137184e-05
255 *62:8 0.00063625666624
256 _317_:X 0.0005181217564799999
257 _373_:A0 0
*RES
351 *62:1 _373_:A0 0.6071428571428571
352 *62:2 *62:1 2.669642857142857
353 *62:3 *62:2 0.30357142857142855
354 *62:4 *62:3 7.1875
355 *62:4 *62:5 0.30357142857142855
356 *62:6 *62:5 10.678571428571429
357 *62:7 *62:6 0.30357142857142855
358 *62:8 *62:9 0.30357142857142855
359 _317_:X *62:9 5.339285714285714
360 *62:8 *62:7 6.160714285714286
361 _373_:A0 _373_:A0 0
362 _317_:X _317_:X 0
*END

*D_NET *63 0.0009968684184399998
*CONN
*I _380_:X O
*I _318_:A I
*CAP
258 *63:1 0.00014298538739999998
259 *63:3 0.00020745720768000002
260 _380_:X 0.00024524937376
261 *63:6 0.00040117644959999997
262 _318_:A 0
263 *63:4 0
*RES
363 *63:1 *63:2 1.5178571428571426
364 *63:3 *63:4 1.6428571428571428
365 *63:3 *63:5 0.30357142857142855
366 _380_:X *63:5 2.464285714285714
367 *63:6 _318_:A 4.107142857142857
368 _318_:A _318_:A 0
369 *63:6 *63:1 0
370 *63:4 *63:2 0
371 _380_:X _380_:X 0
*END

*D_NET *64 0.0004536991036
*CONN
*I _371_:A0 I
*I _318_:X O
*CAP
264 *64:1 0.00028423114272
265 *64:2 0.00016946796088000002
266 _318_:X 0
267 _371_:A0 0
*RES
372 *64:1 _318_:X 2.875
373 *64:2 *64:3 1.8214285714285714
374 _318_:X _318_:X 0
375 *64:1 *64:2 0
376 _371_:A0 _371_:A0 0
377 _371_:A0 *64:3 0
*END

*D_NET *65 0.0025237923826000003
*CONN
*I _369_:A0 I
*I _319_:X O
*CAP
268 *65:1 5.034052896000001e-05
269 *65:2 0.00247345185364
270 _369_:A0 0
271 _319_:X 0
*RES
378 *65:1 _319_:X 0.4107142857142857
379 *65:2 *65:3 28.232142857142854
380 _369_:A0 _369_:A0 0
381 _369_:A0 *65:2 0
382 *65:1 *65:3 0
383 _319_:X _319_:X 0
*END

*D_NET *66 0.00348328473664
*CONN
*I _367_:A0 I
*I _319_:B1 I
*I _317_:B1 I
*I _312_:B1 I
*I _310_:Y O
*CAP
272 *66:1 5.034052896000001e-05
273 *66:2 0.0002753982548
274 _367_:A0 0.00114183005984
275 *66:5 0.00045421300632000005
276 _312_:B1 4.017137184e-05
277 *66:8 0.00016728583584
278 *66:9 4.017137184e-05
279 *66:10 0.00032321291168
280 *66:11 4.017137184e-05
281 *66:4 0.00012830406688
282 _317_:B1 4.017137184e-05
283 _310_:Y 0.00078201458496
284 _319_:B1 0
*RES
384 *66:1 _319_:B1 0.4107142857142857
385 *66:2 *66:3 3.035714285714285
386 _367_:A0 *66:4 11.910714285714285