*SPEF "IEEE 1481-1998"
*DESIGN "digital_pll"
*DATE "Sun Apr 25 03:58:18 2021"
*VENDOR "AUC CSCE Department"
*PROGRAM "SPEF Extractor"
*VERSION "1.0"
*DESIGN_FLOW "PIN_CAP NONE"
*DIVIDER /
*DELIMITER :
*BUS_DELIMITER []
*T_UNIT 1.00000 NS
*C_UNIT 1.00000 PF
*R_UNIT 1.00000 OHM
*L_UNIT 1.00000 HENRY


*NAME_MAP
*0 clockc
*1 clockd[0]
*2 clockd[1]
*3 clockd[2]
*4 clockd[3]
*5 clockp[0]
*6 clockp[1]
*7 dco
*8 div[0]
*9 div[1]
*10 div[2]
*11 div[3]
*12 div[4]
*13 ext_trim[0]
*14 ext_trim[10]
*15 ext_trim[11]
*16 ext_trim[12]
*17 ext_trim[13]
*18 ext_trim[14]
*19 ext_trim[15]
*20 ext_trim[16]
*21 ext_trim[17]
*22 ext_trim[18]
*23 ext_trim[19]
*24 ext_trim[1]
*25 ext_trim[20]
*26 ext_trim[21]
*27 ext_trim[22]
*28 ext_trim[23]
*29 ext_trim[24]
*30 ext_trim[25]
*31 ext_trim[2]
*32 ext_trim[3]
*33 ext_trim[4]
*34 ext_trim[5]
*35 ext_trim[6]
*36 ext_trim[7]
*37 ext_trim[8]
*38 ext_trim[9]
*39 extclk_sel
*40 osc
*41 reset
*42 sel[0]
*43 sel[1]
*44 sel[2]
*45 _000_
*46 _001_
*47 _002_
*48 _003_
*49 _004_
*50 _005_
*51 _006_
*52 _007_
*53 _008_
*54 _009_
*55 _010_
*56 _011_
*57 _012_
*58 _013_
*59 _014_
*60 _015_
*61 _016_
*62 _017_
*63 _018_
*64 _019_
*65 _020_
*66 _021_
*67 _022_
*68 _023_
*69 _024_
*70 _025_
*71 _026_
*72 _027_
*73 _028_
*74 _029_
*75 _030_
*76 _031_
*77 _032_
*78 _033_
*79 _034_
*80 _035_
*81 _036_
*82 _037_
*83 _038_
*84 _039_
*85 _040_
*86 _041_
*87 _042_
*88 _043_
*89 _044_
*90 _045_
*91 _046_
*92 _047_
*93 _048_
*94 _049_
*95 _050_
*96 _051_
*97 _052_
*98 _053_
*99 _054_
*100 _055_
*101 _056_
*102 _057_
*103 _058_
*104 _059_
*105 _060_
*106 _061_
*107 _062_
*108 _063_
*109 _064_
*110 _065_
*111 _066_
*112 _067_
*113 _068_
*114 _069_
*115 _070_
*116 _071_
*117 _072_
*118 _073_
*119 _074_
*120 _075_
*121 _076_
*122 _077_
*123 _078_
*124 _079_
*125 _080_
*126 _081_
*127 _082_
*128 _083_
*129 _084_
*130 _085_
*131 _086_
*132 _087_
*133 _088_
*134 _089_
*135 _090_
*136 _091_
*137 _092_
*138 _093_
*139 _094_
*140 _095_
*141 _096_
*142 _097_
*143 _098_
*144 _099_
*145 _100_
*146 _101_
*147 _102_
*148 _103_
*149 _104_
*150 _105_
*151 _106_
*152 _107_
*153 _108_
*154 _109_
*155 _110_
*156 _111_
*157 _112_
*158 _113_
*159 _114_
*160 _115_
*161 _116_
*162 _117_
*163 _118_
*164 _119_
*165 _120_
*166 _121_
*167 _122_
*168 _123_
*169 _124_
*170 _125_
*171 _126_
*172 _127_
*173 _128_
*174 _129_
*175 _130_
*176 _131_
*177 _132_
*178 _133_
*179 _134_
*180 _135_
*181 _136_
*182 _137_
*183 _138_
*184 _139_
*185 _140_
*186 _141_
*187 _142_
*188 _143_
*189 _144_
*190 _145_
*191 _146_
*192 _147_
*193 _148_
*194 _149_
*195 _150_
*196 _151_
*197 _152_
*198 _153_
*199 _154_
*200 _155_
*201 _156_
*202 _157_
*203 _158_
*204 _159_
*205 _160_
*206 _161_
*207 _162_
*208 _163_
*209 _164_
*210 _165_
*211 _166_
*212 _167_
*213 _168_
*214 _169_
*215 _170_
*216 _171_
*217 _172_
*218 _173_
*219 _174_
*220 _175_
*221 nint\[0\]
*222 nint\[1\]
*223 nint\[2\]
*224 nint\[3\]
*225 pll_control.clock
*226 pll_control.count0\[0\]
*227 pll_control.count0\[1\]
*228 pll_control.count0\[2\]
*229 pll_control.count0\[3\]
*230 pll_control.count0\[4\]
*231 pll_control.count1\[0\]
*232 pll_control.count1\[1\]
*233 pll_control.count1\[2\]
*234 pll_control.count1\[3\]
*235 pll_control.count1\[4\]
*236 pll_control.oscbuf\[0\]
*237 pll_control.oscbuf\[1\]
*238 pll_control.oscbuf\[2\]
*239 pll_control.prep\[0\]
*240 pll_control.prep\[1\]
*241 pll_control.prep\[2\]
*242 pll_control.tint\[0\]
*243 pll_control.tint\[1\]
*244 pll_control.tint\[2\]
*245 pll_control.tint\[3\]
*246 pll_control.tint\[4\]
*247 pll_control.tval\[0\]
*248 pll_control.tval\[1\]
*249 resetb
*250 ringosc.c\[0\]
*251 ringosc.c\[1\]
*252 ringosc.dstage\[0\].id.d0
*253 ringosc.dstage\[0\].id.d1
*254 ringosc.dstage\[0\].id.d2
*255 ringosc.dstage\[0\].id.in
*256 ringosc.dstage\[0\].id.out
*257 ringosc.dstage\[0\].id.trim\[0\]
*258 ringosc.dstage\[0\].id.trim\[1\]
*259 ringosc.dstage\[0\].id.ts
*260 ringosc.dstage\[10\].id.d0
*261 ringosc.dstage\[10\].id.d1
*262 ringosc.dstage\[10\].id.d2
*263 ringosc.dstage\[10\].id.in
*264 ringosc.dstage\[10\].id.out
*265 ringosc.dstage\[10\].id.trim\[0\]
*266 ringosc.dstage\[10\].id.trim\[1\]
*267 ringosc.dstage\[10\].id.ts
*268 ringosc.dstage\[11\].id.d0
*269 ringosc.dstage\[11\].id.d1
*270 ringosc.dstage\[11\].id.d2
*271 ringosc.dstage\[11\].id.out
*272 ringosc.dstage\[11\].id.trim\[0\]
*273 ringosc.dstage\[11\].id.trim\[1\]
*274 ringosc.dstage\[11\].id.ts
*275 ringosc.dstage\[1\].id.d0
*276 ringosc.dstage\[1\].id.d1
*277 ringosc.dstage\[1\].id.d2
*278 ringosc.dstage\[1\].id.out
*279 ringosc.dstage\[1\].id.trim\[0\]
*280 ringosc.dstage\[1\].id.trim\[1\]
*281 ringosc.dstage\[1\].id.ts
*282 ringosc.dstage\[2\].id.d0
*283 ringosc.dstage\[2\].id.d1
*284 ringosc.dstage\[2\].id.d2
*285 ringosc.dstage\[2\].id.out
*286 ringosc.dstage\[2\].id.trim\[0\]
*287 ringosc.dstage\[2\].id.trim\[1\]
*288 ringosc.dstage\[2\].id.ts
*289 ringosc.dstage\[3\].id.d0
*290 ringosc.dstage\[3\].id.d1
*291 ringosc.dstage\[3\].id.d2
*292 ringosc.dstage\[3\].id.out
*293 ringosc.dstage\[3\].id.trim\[0\]
*294 ringosc.dstage\[3\].id.trim\[1\]
*295 ringosc.dstage\[3\].id.ts
*296 ringosc.dstage\[4\].id.d0
*297 ringosc.dstage\[4\].id.d1
*298 ringosc.dstage\[4\].id.d2
*299 ringosc.dstage\[4\].id.out
*300 ringosc.dstage\[4\].id.trim\[0\]
*301 ringosc.dstage\[4\].id.trim\[1\]
*302 ringosc.dstage\[4\].id.ts
*303 ringosc.dstage\[5\].id.d0
*304 ringosc.dstage\[5\].id.d1
*305 ringosc.dstage\[5\].id.d2
*306 ringosc.dstage\[5\].id.out
*307 ringosc.dstage\[5\].id.trim\[0\]
*308 ringosc.dstage\[5\].id.trim\[1\]
*309 ringosc.dstage\[5\].id.ts
*310 ringosc.dstage\[6\].id.d0
*311 ringosc.dstage\[6\].id.d1
*312 ringosc.dstage\[6\].id.d2
*313 ringosc.dstage\[6\].id.out
*314 ringosc.dstage\[6\].id.trim\[0\]
*315 ringosc.dstage\[6\].id.trim\[1\]
*316 ringosc.dstage\[6\].id.ts
*317 ringosc.dstage\[7\].id.d0
*318 ringosc.dstage\[7\].id.d1
*319 ringosc.dstage\[7\].id.d2
*320 ringosc.dstage\[7\].id.out
*321 ringosc.dstage\[7\].id.trim\[0\]
*322 ringosc.dstage\[7\].id.trim\[1\]
*323 ringosc.dstage\[7\].id.ts
*324 ringosc.dstage\[8\].id.d0
*325 ringosc.dstage\[8\].id.d1
*326 ringosc.dstage\[8\].id.d2
*327 ringosc.dstage\[8\].id.out
*328 ringosc.dstage\[8\].id.trim\[0\]
*329 ringosc.dstage\[8\].id.trim\[1\]
*330 ringosc.dstage\[8\].id.ts
*331 ringosc.dstage\[9\].id.d0
*332 ringosc.dstage\[9\].id.d1
*333 ringosc.dstage\[9\].id.d2
*334 ringosc.dstage\[9\].id.trim\[0\]
*335 ringosc.dstage\[9\].id.trim\[1\]
*336 ringosc.dstage\[9\].id.ts
*337 ringosc.iss.ctrl0
*338 ringosc.iss.d0
*339 ringosc.iss.d1
*340 ringosc.iss.d2
*341 ringosc.iss.one
*342 ringosc.iss.reset
*343 ringosc.iss.trim\[0\]
*344 ringosc.iss.trim\[1\]
*345 net1
*346 net2
*347 net3
*348 net4
*349 net5
*350 net6
*351 net7
*352 net8
*353 net9
*354 net10
*355 net11
*356 net12
*357 net13
*358 net14
*359 net15
*360 net16
*361 net17
*362 net18
*363 net19
*364 net20
*365 net21
*366 net22
*367 net23
*368 net24
*369 net25
*370 net26
*371 net27
*372 net28
*373 net29
*374 net30
*375 net31
*376 net32
*377 net33
*378 net34
*379 net35
*380 net36
*381 net37
*382 net38
*383 net39
*384 net40
*385 net41
*386 net42
*387 net43
*388 net44
*389 net45
*390 net46

*D_NET *0 0.00038345459844
*CONN
*P clockc O
*I output39:X O
*CAP
0 *0:1 0.0003596407917
1 *0:3 2.3813806740000006e-05
2 *0:4 0
3 output39:X 0
*RES
0 *0:1 *0:2 0.6125666666666667
1 *0:3 *0:4 0.15178571428571427
2 *0:4 *0:2 0
3 output39:X output39:X 0
4 output39:X *0:3 0
*END

*D_NET *1 0.00040993717191999997
*CONN
*P clockd[0] O
*I output40:X O
*CAP
4 *1:1 0.0003596407917
5 *1:3 5.029638022e-05
6 output40:X 0
*RES
5 *1:1 *1:2 0.6125666666666667
6 *1:3 *1:4 0.45535714285714285
7 *1:3 *1:2 0
8 output40:X output40:X 0
9 output40:X *1:4 0
*END

*D_NET *2 0.00042287193864
*CONN
*P clockd[1] O
*I output41:X O
*CAP
7 *2:1 2.3813806740000006e-05
8 *2:3 0.00039905813189999997
9 output41:X 0
10 *2:2 0
*RES
10 *2:1 *2:2 0.15178571428571427
11 *2:3 *2:4 0.6846333333333334
12 output41:X output41:X 0
13 output41:X *2:1 0
14 *2:2 *2:4 0
*END

*D_NET *3 0.00147665751748
*CONN
*P clockd[2] O
*I output42:X O
*CAP
11 *3:1 0.00036808726198
12 *3:3 0.0011085702555
13 output42:X 0
*RES
15 *3:1 *3:2 4.098214285714286
16 *3:3 *3:4 1.9818333333333336
17 output42:X output42:X 0
18 output42:X *3:2 0
19 *3:1 *3:3 0
*END

*D_NET *4 0.00318481974658
*CONN
*P clockd[3] O
*I output43:X O
*CAP
14 *4:1 0.0008712561581000002
15 *4:3 0.00048965131776
16 output43:X 0.0004791399875199999
17 *4:6 0.00022243310784000002
18 *4:8 0.00112233917536
19 *4:4 0
20 *4:5 0
*RES
20 *4:1 *4:2 9.866071428571429
21 *4:3 *4:4 4.3125
22 output43:X *4:5 4.928571428571428
23 *4:6 *4:7 2.4285714285714284
24 *4:8 *4:9 11.70535714285714
25 *4:3 *4:9 0.6071428571428571
26 *4:4 *4:2 0
27 output43:X output43:X 0
28 *4:5 *4:6 0
29 *4:8 *4:7 0
*END

*D_NET *5 0.00047583708559999997
*CONN
*P clockp[0] O
*I output44:X O
*CAP
21 *5:1 7.67789537e-05
22 *5:3 0.00039905813189999997
23 output44:X 0
24 *5:2 0
*RES
30 *5:1 *5:2 0.7589285714285713
31 *5:3 *5:4 0.6846333333333334
32 output44:X output44:X 0
33 output44:X *5:1 0
34 *5:2 *5:4 0
*END

*D_NET *6 0.00063291299678
*CONN
*P clockp[1] O
*I output45:X O
*CAP
25 *6:1 0.00063291299678
26 output45:X 0
*RES
35 *6:1 *6:2 7.133928571428571
36 output45:X output45:X 0
37 output45:X *6:2 0
*END

*D_NET *7 0.0006858781437400002
*CONN
*P dco I
*I input1:A I
*CAP
27 *7:1 0.0006858781437400002
28 input1:A 0
*RES
38 *7:1 *7:2 7.741071428571428
39 input1:A input1:A 0
40 input1:A *7:2 0
*END

*D_NET *8 0.00184925266632
*CONN
*P div[0] I
*I input2:A I
*CAP
29 *8:1 0.0008720662143000001
30 *8:3 0.00097718645202
31 input2:A 0
32 *8:4 0
*RES
41 *8:1 *8:2 1.5494333333333334
42 *8:3 *8:4 11.080357142857142
43 input2:A input2:A 0
44 input2:A *8:3 0
45 *8:4 *8:1 0
*END

*D_NET *9 0.005483762041500001
*CONN
*P div[1] I
*I input3:A I
*CAP
33 *9:1 0.00057994784982
34 *9:3 0.00022243310784000002
35 *9:5 0.00034304596928
36 *9:7 0.004338335114560001
37 *9:8 0
38 *9:6 0
39 input3:A 0
*RES
46 *9:1 *9:2 6.5267857142857135
47 *9:3 *9:4 2.4285714285714284
48 *9:5 *9:6 2.464285714285714
49 *9:5 input3:A 0.9107142857142857
50 *9:7 *9:8 45.589285714285715
51 *9:8 *9:1 0
52 *9:7 *9:4 0
53 *9:6 *9:3 0
54 input3:A input3:A 0
*END

*D_NET *10 0.00129790152006
*CONN
*P div[2] I
*I input4:A I
*CAP
40 input4:A 5.491985088e-05
41 *10:1 0.00055710352544
42 *10:3 0.0006858781437400002
43 *10:2 0
*RES
55 input4:A input4:A 0.03571428571428571
56 input4:A *10:1 0.30357142857142855
57 *10:1 *10:2 5.75
58 *10:3 *10:4 7.741071428571428
59 input4:A input4:A 0
60 *10:2 *10:3 0
*END

*D_NET *11 0.0012724326077000001
*CONN
*P div[3] I
*I input5:A I
*CAP
44 *11:1 0.0008712561581000002
45 *11:3 0.00040117644959999997
46 input5:A 0
*RES
61 *11:1 *11:2 9.866071428571429
62 *11:3 input5:A 4.107142857142857
63 *11:3 *11:2 0
64 input5:A input5:A 0
*END

*D_NET *12 0.004476541817379999
*CONN
*P div[4] I
*I input6:A I
*CAP
47 *12:1 0.00016946796088000002
48 *12:3 0.0037536085801599998
49 *12:5 0.00055346527634
50 input6:A 0
51 *12:4 0
*RES
65 *12:1 *12:2 1.8214285714285714
66 *12:3 *12:4 39.42857142857142
67 *12:5 *12:6 6.223214285714285
68 input6:A input6:A 0
69 input6:A *12:1 0
70 *12:3 *12:2 0
71 *12:4 *12:5 0
*END

*D_NET *13 0.0036489702977000006
*CONN
*P ext_trim[0] I
*I input7:A I
*CAP
52 *13:1 0.0010638665219200002
53 *13:3 0.00154656178184
54 input7:A 0.00016728583584
55 *13:6 0.0008712561581000002
56 *13:2 0
57 *13:5 0
*RES
72 *13:1 *13:2 11.089285714285714
73 *13:3 *13:4 17.607142857142854
74 input7:A *13:5 1.6428571428571428
75 *13:6 *13:7 9.866071428571429
76 *13:2 *13:6 0
77 *13:1 *13:4 0
78 *13:5 *13:3 0
79 input7:A input7:A 0
*END

*D_NET *14 0.00138497453442
*CONN
*P ext_trim[10] I
*I input8:A I
*CAP
58 input8:A 0.00045964910303999994
59 *14:2 0.00065939557026
60 *14:4 0.00026592986112
61 *14:5 0
*RES
80 input8:A *14:1 4.723214285714286
81 *14:2 *14:3 7.437499999999999
82 *14:4 *14:5 2.258928571428571
83 *14:4 *14:1 0.30357142857142855
84 input8:A input8:A 0
85 *14:5 *14:3 0
*END

*D_NET *15 0.0007123607172200001
*CONN
*P ext_trim[11] I
*I input9:A I
*CAP
62 *15:1 0.0007123607172200001
63 input9:A 0
*RES
86 *15:1 *15:2 8.044642857142856
87 input9:A input9:A 0
88 input9:A *15:1 0
*END

*D_NET *16 0.0008853974144799999
*CONN
*P ext_trim[12] I
*I input10:A I
*CAP
64 *16:1 0.00036808726198
65 *16:3 0.0005173101524999999
66 input10:A 0
*RES
89 *16:1 *16:2 4.098214285714286
90 *16:3 *16:4 0.9008333333333334
91 input10:A input10:A 0
92 input10:A *16:2 0
93 *16:1 *16:3 0
*END

*D_NET *17 0.0007362186727000002
*CONN
*P ext_trim[13] I
*I input11:A I
*CAP
67 *17:1 0.0006858781437400002
68 input11:A 5.034052896000001e-05
69 *17:3 0
*RES
94 *17:1 *17:2 7.741071428571428
95 input11:A *17:3 0.4107142857142857
96 *17:3 *17:2 0
97 input11:A input11:A 0
*END

*D_NET *18 0.0018080208073800001
*CONN
*P ext_trim[14] I
*I input12:A I
*CAP
70 *18:1 0.00171869850946
71 *18:3 8.932229792e-05
72 input12:A 0
*RES
98 *18:1 *18:2 19.580357142857142
99 *18:3 input12:A 0.8214285714285714
100 *18:3 *18:2 0
101 input12:A input12:A 0
*END

*D_NET *19 0.0041200663321599995
*CONN
*P ext_trim[15] I
*I input13:A I
*CAP
73 *19:1 0.00036808726198
74 *19:3 0.0016998303585
75 *19:5 0.0016887644281600002
76 *19:7 0.00036338428352000003
77 *19:8 0
78 *19:2 0
79 input13:A 0
*RES
102 *19:1 *19:2 4.098214285714286
103 *19:3 *19:4 3.0628333333333337
104 *19:5 *19:6 0.30357142857142855
105 *19:7 *19:6 3.2857142857142856
106 *19:7 input13:A 0.30357142857142855
107 *19:5 *19:8 17.25
108 *19:8 *19:1 0
109 *19:2 *19:3 0
110 input13:A input13:A 0
*END

*D_NET *20 0.0013744250542200003
*CONN
*P ext_trim[16] I
*I input14:A I
*CAP
80 *20:1 0.0013744250542200003
81 input14:A 0
*RES
111 *20:1 *20:2 15.633928571428571
112 input14:A input14:A 0
113 input14:A *20:1 0
*END

*D_NET *21 0.0006747629067200001
*CONN
*P ext_trim[17] I
*I input15:A I
*CAP
82 *21:1 0.0003596407917
83 *21:3 0.00031512211502
84 input15:A 0
*RES
114 *21:1 *21:2 0.6125666666666667
115 *21:3 *21:4 3.4910714285714284
116 *21:3 *21:2 0
117 input15:A input15:A 0
118 input15:A *21:4 0
*END

*D_NET *22 0.00234030918422
*CONN
*P ext_trim[18] I
*I input16:A I
*CAP
85 *22:1 0.00014298538739999998
86 *22:3 0.00086895767712
87 *22:5 0.0010831167459400002
88 input16:A 0.00024524937376
89 *22:7 0
90 *22:4 0
*RES
119 *22:1 *22:2 1.5178571428571426
120 *22:3 *22:4 9.035714285714285
121 *22:5 *22:6 12.294642857142856
122 input16:A *22:7 2.464285714285714
123 input16:A input16:A 0
124 *22:7 *22:2 0
125 *22:3 *22:1 0
126 *22:4 *22:5 0
*END

*D_NET *23 0.00133560116364
*CONN
*P ext_trim[19] I
*I input17:A I
*CAP
91 *23:1 0.0005173101524999999
92 *23:3 0.00081829101114
93 input17:A 0
94 *23:4 0
*RES
127 *23:1 *23:2 0.9008333333333334
128 *23:3 *23:4 9.25892857142857
129 input17:A input17:A 0
130 input17:A *23:3 0
131 *23:4 *23:1 0
*END

*D_NET *24 0.00253554948682
*CONN
*P ext_trim[1] I
*I input18:A I
*CAP
95 input18:A 0.00012830406688
96 *24:2 0.00240724541994
97 *24:1 0
*RES
132 input18:A *24:1 1.232142857142857
133 *24:2 *24:3 27.47321428571428
134 input18:A input18:A 0
135 *24:1 *24:2 0
*END

*D_NET *25 0.00393388803858
*CONN
*P ext_trim[20] I
*I input19:A I
*CAP
98 input19:A 0.00028423114272
99 *25:2 0.0014345355001600002
100 *25:3 4.017137184e-05
101 *25:4 0.000985902984
102 *25:6 0.0011890470398600002
103 *25:5 0
*RES
136 input19:A *25:1 2.875
137 *25:2 *25:1 0.9107142857142857
138 *25:2 *25:3 13.964285714285714
139 *25:3 *25:4 0.30357142857142855
140 *25:4 *25:5 10.267857142857142
141 *25:6 *25:7 13.508928571428571
142 input19:A input19:A 0
143 *25:5 *25:6 0
*END

*D_NET *26 0.00046290231888
*CONN
*P ext_trim[21] I
*I input20:A I
*CAP
104 *26:1 0.0003596407917
105 *26:3 0.00010326152718000001
106 *26:4 0
107 input20:A 0
*RES
144 *26:1 *26:2 0.6125666666666667
145 *26:3 *26:4 1.0624999999999998
146 *26:4 *26:2 0
147 input20:A input20:A 0
148 input20:A *26:3 0
*END

*D_NET *27 0.00166670284486
*CONN
*P ext_trim[22] I
*I input21:A I
*CAP
108 input21:A 0.00055710352544
109 *27:2 0.0011095993194200002
110 *27:1 0
*RES
149 input21:A *27:1 5.75
150 *27:2 *27:3 12.598214285714285
151 *27:1 *27:3 0
152 input21:A input21:A 0
*END

*D_NET *28 0.0054808275258
*CONN
*P ext_trim[23] I
*I input22:A I
*CAP
111 *28:1 0.0007909941392
112 input22:A 4.017137184e-05
113 *28:3 0.0017392476987000002
114 *28:5 0.00291041431606
115 *28:2 0
116 *28:6 0
*RES
153 *28:1 *28:2 8.214285714285714
154 input22:A *28:1 0.30357142857142855
155 *28:3 *28:4 3.1349
156 *28:5 *28:6 33.24107142857142
157 *28:2 *28:5 0
158 input22:A input22:A 0
159 *28:6 *28:3 0
*END

*D_NET *29 0.0013548486931800002
*CONN
*P ext_trim[24] I
*I input23:A I
*CAP
117 input23:A 0.00024524937376
118 *29:2 0.0011095993194200002
119 *29:1 0
*RES
160 input23:A *29:1 2.464285714285714
161 *29:2 *29:3 12.598214285714285
162 *29:1 *29:3 0
163 input23:A input23:A 0
*END

*D_NET *30 0.00363572268526
*CONN
*P ext_trim[25] I
*I input24:A I
*CAP
120 input24:A 4.017137184e-05
121 *30:2 0.00084980896576
122 *30:4 4.017137184e-05
123 *30:5 0.00090793944608
124 *30:7 0.00116256446638
125 *30:1 0.00063506706336
126 *30:6 0
*RES
164 input24:A *30:1 0.30357142857142855
165 *30:2 *30:3 0.9107142857142857
166 *30:2 *30:4 7.803571428571428
167 *30:4 *30:5 0.30357142857142855
168 *30:5 *30:6 9.446428571428571
169 *30:7 *30:8 13.20535714285714
170 *30:1 *30:3 6.571428571428571
171 input24:A input24:A 0
172 *30:6 *30:7 0
*END

*D_NET *31 0.0006858781437400002
*CONN
*P ext_trim[2] I
*I input25:A I
*CAP
127 *31:1 0.0006858781437400002
128 input25:A 0
*RES
173 *31:1 *31:2 7.741071428571428
174 input25:A input25:A 0
175 input25:A *31:2 0
*END

*D_NET *32 0.0008170453406400001
*CONN
*P ext_trim[3] I
*I input26:A I
*CAP
129 *32:1 2.3813806740000006e-05
130 *32:3 0.0007932315339000001
131 input26:A 0
132 *32:2 0
*RES
176 *32:1 *32:2 0.15178571428571427
177 *32:3 *32:4 1.4053000000000002
178 input26:A input26:A 0
179 input26:A *32:1 0
180 *32:2 *32:3 0
*END

*D_NET *33 0.00412062859616
*CONN
*P ext_trim[4] I
*I input27:A I
*CAP
133 *33:1 0.0012268222761
134 input27:A 8.932229792e-05
135 *33:4 0.0028044840221400002
136 *33:3 0
*RES
181 *33:1 *33:2 2.198033333333333
182 input27:A *33:3 0.8214285714285714
183 *33:4 *33:5 32.02678571428571
184 *33:4 *33:1 0
185 *33:3 *33:5 0
186 input27:A input27:A 0
*END

*D_NET *34 0.0023968041488399996
*CONN
*P ext_trim[5] I
*I input28:A I
*CAP
137 *34:1 0.00042105240893999997
138 *34:3 0.0019757517398999998
139 *34:2 0
140 input28:A 0
*RES
187 *34:1 *34:2 4.705357142857142
188 *34:3 *34:4 3.5673
189 *34:2 *34:3 0
190 input28:A input28:A 0
191 input28:A *34:1 0
*END

*D_NET *35 0.0005688326128
*CONN
*P ext_trim[6] I
*I input29:A I
*CAP
141 *35:1 0.0003596407917
142 *35:3 0.00020919182110000001
143 input29:A 0
*RES
192 *35:1 *35:2 0.6125666666666667
193 *35:3 *35:4 2.276785714285714
194 *35:3 *35:2 0
195 input29:A input29:A 0
196 input29:A *35:4 0
*END

*D_NET *36 0.0013423494977000002
*CONN
*P ext_trim[7] I
*I input30:A I
*CAP
144 *36:1 0.0002062676048
145 *36:2 0.0011360818929000002
146 input30:A 0
*RES
197 *36:1 input30:A 2.0535714285714284
198 *36:2 *36:3 12.901785714285712
199 input30:A input30:A 0
200 *36:1 *36:2 0
*END

*D_NET *37 0.0007806932006399999
*CONN
*P ext_trim[8] I
*I input31:A I
*CAP
147 *37:1 0.0003596407917
148 *37:3 0.00042105240893999997
149 input31:A 0
*RES
201 *37:1 *37:2 0.6125666666666667
202 *37:3 *37:4 4.705357142857142
203 *37:3 *37:2 0
204 input31:A input31:A 0
205 input31:A *37:4 0
*END

*D_NET *38 0.0035612518840800003
*CONN
*P ext_trim[9] I
*I input32:A I
*CAP
150 *38:1 0.0017392476987000002
151 input32:A 5.034052896000001e-05
152 *38:4 0.00177166365642
153 *38:3 0
*RES
206 *38:1 *38:2 3.1349
207 input32:A *38:3 0.4107142857142857
208 *38:4 *38:5 20.187499999999996
209 *38:4 *38:1 0
210 *38:3 *38:5 0
211 input32:A input32:A 0
*END

*D_NET *39 0.00038345459844
*CONN
*P extclk_sel I
*I input33:A I
*CAP
154 *39:1 0.0003596407917
155 *39:3 2.3813806740000006e-05
156 input33:A 0
*RES
212 *39:1 *39:2 0.6125666666666667
213 *39:3 *39:4 0.15178571428571427
214 *39:3 *39:2 0
215 input33:A input33:A 0
216 input33:A *39:4 0
*END

*D_NET *40 0.0052706160103
*CONN
*P osc I
*I input34:A I
*CAP
157 *40:1 0.0002753982548
158 *40:3 0.00114183005984
159 *40:5 0.00020919182110000001
160 *40:7 0.00014284542059999998
161 *40:9 0.00038132854871999994
162 *40:10 4.640188412000001e-05
163 *40:11 0.00154656178184
164 *40:13 0.00085300940696
165 input34:A 0.00067404883232
166 *40:15 0
167 *40:4 0
168 *40:6 0
*RES
217 *40:1 *40:2 3.035714285714285
218 *40:3 *40:4 11.910714285714285
219 *40:5 *40:6 2.276785714285714
220 *40:7 *40:8 0.2162
221 *40:9 *40:10 4.249999999999999
222 *40:10 *40:11 0.4107142857142857
223 *40:11 *40:12 17.607142857142854
224 *40:13 *40:12 1.6428571428571428
225 *40:13 *40:14 7.892857142857142
226 input34:A *40:15 6.982142857142857
227 *40:15 *40:1 0
228 *40:3 *40:2 0
229 *40:4 *40:5 0
230 *40:6 *40:7 0
231 *40:9 *40:8 0
232 input34:A input34:A 0
*END

*D_NET *41 0.0017351355523399998
*CONN
*P reset I
*I input35:A I
*CAP
169 *41:1 0.00044015821855999997
170 *41:2 0.0012949773337799998
171 input35:A 0
*RES
233 *41:1 input35:A 4.517857142857142
234 *41:2 *41:3 14.723214285714283
235 *41:1 *41:3 0
236 input35:A input35:A 0
*END

*D_NET *42 0.0008141822106200002
*CONN
*P sel[0] I
*I input36:A I
*CAP
172 *42:1 0.0006858781437400002
173 input36:A 0.00012830406688
174 *42:3 0
*RES
237 *42:1 *42:2 7.741071428571428
238 input36:A *42:3 1.232142857142857
239 *42:3 *42:2 0
240 input36:A input36:A 0
*END

*D_NET *43 0.00128196343814
*CONN
*P sel[1] I
*I input37:A I
*CAP
175 input37:A 0.0005960852944
176 *43:2 0.0006858781437400002
177 *43:1 0
*RES
241 input37:A *43:1 6.160714285714286
242 *43:2 *43:3 7.741071428571428
243 input37:A input37:A 0
244 *43:1 *43:2 0
*END

*D_NET *44 0.0013369640438199999
*CONN
*P sel[2] I
*I input38:A I
*CAP
178 *44:1 0.00063291299678
179 *44:3 0.00063506706336
180 *44:4 6.898398368e-05
181 input38:A 0
*RES
245 *44:1 *44:2 7.133928571428571
246 *44:3 *44:4 6.571428571428571
247 *44:4 input38:A 0.6071428571428571
248 *44:3 *44:2 0
249 input38:A input38:A 0
*END

*D_NET *45 0.00135359190176
*CONN
*I _380_:A1 I
*I _292_:B I
*I _290_:X O
*CAP
182 *45:1 0.00043429369568000003
183 _290_:X 0.00032321291168
184 *45:4 0.0005960852944
185 _292_:B 0
186 _380_:A1 0
187 *45:3 0
*RES
250 *45:1 *45:2 4.857142857142857
251 _290_:X *45:3 3.2857142857142856
252 *45:4 _292_:B 6.160714285714286
253 _292_:B _292_:B 0
254 _380_:A1 _380_:A1 0
255 _380_:A1 *45:2 0
256 *45:3 *45:1 0
257 _290_:X _290_:X 0
258 *45:4 *45:5 0
*END

*D_NET *46 0.00033675379672000005
*CONN
*I _376_:A0 I
*I _292_:X O
*CAP
188 *46:1 0.00016728583584
189 *46:2 0.00016946796088000002
190 _292_:X 0
191 _376_:A0 0
*RES
259 *46:1 _292_:X 1.6428571428571428
260 *46:2 *46:3 1.8214285714285714
261 _292_:X _292_:X 0
262 *46:1 *46:2 0
263 _376_:A0 _376_:A0 0
264 _376_:A0 *46:3 0
*END

*D_NET *47 0.0019945086447199995
*CONN
*I _374_:A0 I
*I _307_:B1 I
*I _299_:Y O
*CAP
192 *47:1 0.00012830406688
193 *47:2 0.00038132854871999994
194 _307_:B1 0.0009469212150399999
195 _299_:Y 0.00053795481408
196 *47:4 0
197 _374_:A0 0
*RES
265 *47:1 _299_:Y 1.232142857142857
266 *47:2 *47:3 4.249999999999999
267 _307_:B1 *47:4 9.857142857142856
268 _299_:Y _374_:A0 4.517857142857142
269 _299_:Y _299_:Y 0.9107142857142857
270 _299_:Y _299_:Y 0
271 *47:1 *47:3 0
272 *47:4 *47:2 0
273 _307_:B1 _307_:B1 0
274 _374_:A0 _374_:A0 0
*END

*D_NET *48 0.0018518153814000003
*CONN
*I _372_:A0 I
*I _307_:A3 I
*I _304_:B1 I
*I _297_:A I
*I _296_:X O
*CAP
198 *48:1 0.00019595053436
199 *48:3 0.0002062676048
200 *48:4 6.353766696000002e-05
201 *48:6 0.0005960852944
202 *48:7 0.00020745720768000002
203 *48:8 0.00045421300632000005
204 _297_:A 0.00012830406688
205 _296_:X 0
206 _372_:A0 0
207 _304_:B1 0
208 _307_:A3 0
*RES
275 *48:1 *48:2 2.1249999999999996
276 *48:3 _372_:A0 2.0535714285714284
277 *48:4 *48:5 0.6071428571428571
278 *48:6 _296_:X 6.160714285714286
279 *48:7 _307_:A3 1.6428571428571428
280 *48:8 *48:9 4.553571428571428
281 *48:8 *48:5 0.4107142857142857
282 _297_:A *48:10 1.232142857142857
283 *48:7 *48:10 0.30357142857142855
284 _296_:X _296_:X 0
285 _296_:X *48:2 0
286 *48:3 *48:1 0
287 _372_:A0 _372_:A0 0
288 _304_:B1 _304_:B1 0
289 _304_:B1 *48:5 0
290 *48:6 *48:4 0
291 _307_:A3 _307_:A3 0
292 *48:7 *48:9 0
293 _297_:A _297_:A 0
*END

*D_NET *49 0.00089385732216
*CONN
*I _370_:A0 I
*I _291_:X O
*CAP
209 *49:1 8.932229792e-05
210 *49:2 0.00016946796088000002
211 _291_:X 0.00063506706336
212 _370_:A0 0
213 *49:4 0
*RES
294 *49:1 _370_:A0 0.8214285714285714
295 *49:2 *49:3 1.8214285714285714
296 _291_:X *49:4 6.571428571428571
297 _370_:A0 _370_:A0 0
298 *49:1 *49:2 0
299 *49:4 *49:3 0
300 _291_:X _291_:X 0
*END

*D_NET *50 0.0026181929634
*CONN
*I _368_:A0 I
*I _302_:Y O
*CAP
214 *50:1 0.00028423114272
215 *50:2 0.00204973067796
216 _302_:Y 0.00028423114272
217 _368_:A0 0
218 *50:4 0
*RES
301 *50:1 _368_:A0 2.875
302 *50:2 *50:3 23.374999999999996
303 _302_:Y *50:4 2.875
304 _368_:A0 _368_:A0 0
305 *50:1 *50:2 0
306 *50:4 *50:3 0
307 _302_:Y _302_:Y 0
*END

*D_NET *51 0.00027128945428
*CONN
*I _366_:A0 I
*I _304_:X O
*CAP
219 *51:1 0.00014298538739999998
220 _304_:X 0.00012830406688
221 _366_:A0 0
222 *51:3 0
*RES
308 *51:1 *51:2 1.5178571428571426
309 _304_:X *51:3 1.232142857142857
310 _366_:A0 _366_:A0 0
311 _366_:A0 *51:1 0
312 *51:3 *51:2 0
313 _304_:X _304_:X 0
*END

*D_NET *52 0.0021463764985600003
*CONN
*I _364_:A0 I
*I _293_:X O
*CAP
223 _364_:A0 6.898398368e-05
224 *52:1 0.00207739251488
225 _293_:X 0
*RES
314 _364_:A0 *52:1 0.6071428571428571
315 *52:1 _293_:X 21.76785714285714
316 _364_:A0 _364_:A0 0
317 _293_:X _293_:X 0
*END

*D_NET *53 0.00232333983116
*CONN
*I _362_:A0 I
*I _305_:X O
*CAP
226 *53:1 9.002024044000002e-05
227 *53:3 0.00223331959072
228 _362_:A0 0
229 _305_:X 0
*RES
318 *53:1 *53:2 0.9107142857142857
319 *53:3 _305_:X 23.41071428571428
320 *53:3 *53:1 0
321 _362_:A0 _362_:A0 0
322 _362_:A0 *53:2 0
323 _305_:X _305_:X 0
*END

*D_NET *54 0.00197284765756
*CONN
*I _360_:A0 I
*I _303_:X O
*CAP
230 *54:1 0.00019595053436
231 *54:3 0.00075201237024
232 _360_:A0 0.0010248847529600001
233 *54:4 0
234 _303_:X 0
*RES
324 *54:1 *54:2 2.1249999999999996
325 *54:3 _303_:X 7.803571428571428
326 _360_:A0 *54:4 10.678571428571429
327 _360_:A0 _360_:A0 0
328 *54:4 *54:1 0
329 *54:3 *54:2 0
330 _303_:X _303_:X 0
*END

*D_NET *55 0.00422771720028
*CONN
*I _358_:A0 I
*I _301_:Y O
*CAP
235 _358_:A0 0.00028423114272
236 *55:2 0.0016789746492400003
237 *55:4 0.00131759019328
238 _301_:Y 0.0009469212150399999
239 *55:1 0
240 *55:6 0
*RES
331 _358_:A0 *55:1 2.875
332 *55:2 *55:3 19.125
333 *55:4 *55:5 0.9107142857142857
334 _301_:Y *55:5 9.857142857142856
335 *55:4 *55:6 12.732142857142856
336 _358_:A0 _358_:A0 0
337 *55:1 *55:2 0
338 *55:6 *55:3 0
339 _301_:Y _301_:Y 0
*END

*D_NET *56 0.00198706374744
*CONN
*I _356_:A0 I
*I _306_:X O
*CAP
241 *56:1 0.00016728583584
242 *56:2 0.00165249207576
243 *56:4 0.00016728583584
244 _356_:A0 0
245 _306_:X 0
*RES
340 *56:1 _356_:A0 1.6428571428571428
341 *56:2 *56:3 18.82142857142857
342 *56:4 _306_:X 1.6428571428571428
343 _356_:A0 _356_:A0 0
344 *56:1 *56:2 0
345 *56:4 *56:3 0
346 _306_:X _306_:X 0
*END

*D_NET *57 0.00058759615352
*CONN
*I _354_:A0 I
*I _307_:X O
*CAP
246 *57:1 0.0002062676048
247 *57:2 0.00038132854871999994
248 _307_:X 0
249 _354_:A0 0
*RES
347 *57:1 _307_:X 2.0535714285714284
348 *57:2 *57:3 4.249999999999999
349 _307_:X _307_:X 0
350 *57:1 *57:2 0
351 _354_:A0 _354_:A0 0
352 _354_:A0 *57:3 0
*END

*D_NET *58 0.0014022750431600002
*CONN
*I _378_:A0 I
*I _303_:B1 I
*I _300_:Y O
*CAP
250 _303_:B1 5.034052896000001e-05
251 *58:1 4.017137184e-05
252 *58:2 0.00012830406688
253 *58:4 0.00012949366976
254 *58:6 0.0006726368570000002
255 *58:8 0.00038132854871999994
256 *58:5 0
257 _300_:Y 0
258 _378_:A0 0
*RES
353 _303_:B1 *58:1 0.4107142857142857
354 *58:1 *58:2 0.30357142857142855
355 *58:2 *58:3 1.232142857142857
356 *58:4 *58:3 0.30357142857142855
357 *58:4 *58:5 0.8214285714285714
358 *58:6 *58:7 7.5892857142857135
359 *58:8 *58:6 4.249999999999999
360 _303_:B1 _303_:B1 0
361 *58:5 *58:6 0
362 _300_:Y _300_:Y 0
363 _300_:Y *58:7 0
364 _378_:A0 _378_:A0 0
365 _378_:A0 *58:8 0
*END

*D_NET *59 0.00025879025880000005
*CONN
*I _377_:A0 I
*I _308_:X O
*CAP
259 *59:1 0.00016946796088000002
260 _308_:X 8.932229792e-05
261 _377_:A0 0
262 *59:3 0
*RES
366 *59:1 *59:2 1.8214285714285714
367 _308_:X *59:3 0.8214285714285714
368 _377_:A0 _377_:A0 0
369 _377_:A0 *59:1 0
370 *59:3 *59:2 0
371 _308_:X _308_:X 0
*END

*D_NET *60 0.0022433155428000003
*CONN
*I _380_:A0 I
*I _313_:B I
*I _309_:X O
*CAP
263 _309_:X 0.0014938555833600002
264 *60:1 0.0006991194304800001
265 _380_:A0 5.034052896000001e-05
266 _313_:B 0
267 *60:3 0
*RES
372 _309_:X _380_:A0 15.19642857142857
373 _309_:X _309_:X 0.30357142857142855
374 *60:1 *60:2 7.892857142857142
375 _380_:A0 *60:3 0.4107142857142857
376 _380_:A0 _380_:A0 0
377 _309_:X _309_:X 0
378 _313_:B _313_:B 0
379 _313_:B *60:1 0
380 *60:3 *60:2 0
*END

*D_NET *61 0.00209628097072
*CONN
*I _375_:A0 I
*I _316_:X O
*CAP
268 *61:1 0.00078201458496
269 *61:3 0.00032836340175999997
270 *61:5 0.000985902984
271 _375_:A0 0
272 _316_:X 0
*RES
381 *61:1 _375_:A0 7.3928571428571415
382 *61:1 *61:2 0.6071428571428571
383 *61:3 *61:4 3.642857142857143
384 *61:5 *61:2 10.267857142857142
385 _375_:A0 _375_:A0 0
386 *61:5 *61:3 0
387 _316_:X _316_:X 0
388 _316_:X *61:4 0
*END

*D_NET *62 0.00316078581932
*CONN
*I _373_:A0 I
*I _317_:X O
*CAP
273 *62:1 0.00051374141612
274 *62:3 0.00032321291168
275 *62:4 0.0016887644281600002
276 _317_:X 0.00063506706336
277 *62:6 0
278 _373_:A0 0
*RES
389 *62:1 *62:2 5.767857142857142
390 *62:3 _373_:A0 3.2857142857142856
391 *62:4 *62:5 0.30357142857142855
392 _317_:X *62:5 6.571428571428571
393 *62:4 *62:6 17.25
394 *62:6 *62:1 0
395 *62:3 *62:2 0
396 _373_:A0 _373_:A0 0
397 _317_:X _317_:X 0
*END

*D_NET *63 0.00023230768531999998
*CONN
*I _380_:X O
*I _318_:A I
*CAP
279 *63:1 8.932229792e-05
280 *63:2 0.00014298538739999998
281 _380_:X 0
282 _318_:A 0
*RES