*SPEF "IEEE 1481-1998"
*DESIGN "digital_pll"
*DATE "Wed Apr 28 17:55:35 2021"
*VENDOR "AUC CSCE Department"
*PROGRAM "SPEF Extractor"
*VERSION "1.0"
*DESIGN_FLOW "PIN_CAP NONE"
*DIVIDER /
*DELIMITER :
*BUS_DELIMITER []
*T_UNIT 1.00000 NS
*C_UNIT 1.00000 PF
*R_UNIT 1.00000 OHM
*L_UNIT 1.00000 HENRY


*NAME_MAP
*0 clockc
*1 clockd[0]
*2 clockd[1]
*3 clockd[2]
*4 clockd[3]
*5 clockp[0]
*6 clockp[1]
*7 dco
*8 div[0]
*9 div[1]
*10 div[2]
*11 div[3]
*12 div[4]
*13 ext_trim[0]
*14 ext_trim[10]
*15 ext_trim[11]
*16 ext_trim[12]
*17 ext_trim[13]
*18 ext_trim[14]
*19 ext_trim[15]
*20 ext_trim[16]
*21 ext_trim[17]
*22 ext_trim[18]
*23 ext_trim[19]
*24 ext_trim[1]
*25 ext_trim[20]
*26 ext_trim[21]
*27 ext_trim[22]
*28 ext_trim[23]
*29 ext_trim[24]
*30 ext_trim[25]
*31 ext_trim[2]
*32 ext_trim[3]
*33 ext_trim[4]
*34 ext_trim[5]
*35 ext_trim[6]
*36 ext_trim[7]
*37 ext_trim[8]
*38 ext_trim[9]
*39 extclk_sel
*40 osc
*41 reset
*42 sel[0]
*43 sel[1]
*44 sel[2]
*45 _000_
*46 _001_
*47 _002_
*48 _003_
*49 _004_
*50 _005_
*51 _006_
*52 _007_
*53 _008_
*54 _009_
*55 _010_
*56 _011_
*57 _012_
*58 _013_
*59 _014_
*60 _015_
*61 _016_
*62 _017_
*63 _018_
*64 _019_
*65 _020_
*66 _021_
*67 _022_
*68 _023_
*69 _024_
*70 _025_
*71 _026_
*72 _027_
*73 _028_
*74 _029_
*75 _030_
*76 _031_
*77 _032_
*78 _033_
*79 _034_
*80 _035_
*81 _036_
*82 _037_
*83 _038_
*84 _039_
*85 _040_
*86 _041_
*87 _042_
*88 _043_
*89 _044_
*90 _045_
*91 _046_
*92 _047_
*93 _048_
*94 _049_
*95 _050_
*96 _051_
*97 _052_
*98 _053_
*99 _054_
*100 _055_
*101 _056_
*102 _057_
*103 _058_
*104 _059_
*105 _060_
*106 _061_
*107 _062_
*108 _063_
*109 _064_
*110 _065_
*111 _066_
*112 _067_
*113 _068_
*114 _069_
*115 _070_
*116 _071_
*117 _072_
*118 _073_
*119 _074_
*120 _075_
*121 _076_
*122 _077_
*123 _078_
*124 _079_
*125 _080_
*126 _081_
*127 _082_
*128 _083_
*129 _084_
*130 _085_
*131 _086_
*132 _087_
*133 _088_
*134 _089_
*135 _090_
*136 _091_
*137 _092_
*138 _093_
*139 _094_
*140 _095_
*141 _096_
*142 _097_
*143 _098_
*144 _099_
*145 _100_
*146 _101_
*147 _102_
*148 _103_
*149 _104_
*150 _105_
*151 _106_
*152 _107_
*153 _108_
*154 _109_
*155 _110_
*156 _111_
*157 _112_
*158 _113_
*159 _114_
*160 _115_
*161 _116_
*162 _117_
*163 _118_
*164 _119_
*165 _120_
*166 _121_
*167 _122_
*168 _123_
*169 _124_
*170 _125_
*171 _126_
*172 _127_
*173 _128_
*174 _129_
*175 _130_
*176 _131_
*177 _132_
*178 _133_
*179 _134_
*180 _135_
*181 _136_
*182 _137_
*183 _138_
*184 _139_
*185 _140_
*186 _141_
*187 _142_
*188 _143_
*189 _144_
*190 _145_
*191 _146_
*192 _147_
*193 _148_
*194 _149_
*195 _150_
*196 _151_
*197 _152_
*198 _153_
*199 _154_
*200 _155_
*201 _156_
*202 _157_
*203 _158_
*204 _159_
*205 _160_
*206 _161_
*207 _162_
*208 _163_
*209 _164_
*210 _165_
*211 _166_
*212 _167_
*213 _168_
*214 _169_
*215 _170_
*216 _171_
*217 _172_
*218 _173_
*219 _174_
*220 _175_
*221 nint\[0\]
*222 nint\[1\]
*223 nint\[2\]
*224 nint\[3\]
*225 pll_control.clock
*226 pll_control.count0\[0\]
*227 pll_control.count0\[1\]
*228 pll_control.count0\[2\]
*229 pll_control.count0\[3\]
*230 pll_control.count0\[4\]
*231 pll_control.count1\[0\]
*232 pll_control.count1\[1\]
*233 pll_control.count1\[2\]
*234 pll_control.count1\[3\]
*235 pll_control.count1\[4\]
*236 pll_control.oscbuf\[0\]
*237 pll_control.oscbuf\[1\]
*238 pll_control.oscbuf\[2\]
*239 pll_control.prep\[0\]
*240 pll_control.prep\[1\]
*241 pll_control.prep\[2\]
*242 pll_control.tint\[0\]
*243 pll_control.tint\[1\]
*244 pll_control.tint\[2\]
*245 pll_control.tint\[3\]
*246 pll_control.tint\[4\]
*247 pll_control.tval\[0\]
*248 pll_control.tval\[1\]
*249 resetb
*250 ringosc.c\[0\]
*251 ringosc.c\[1\]
*252 ringosc.dstage\[0\].id.d0
*253 ringosc.dstage\[0\].id.d1
*254 ringosc.dstage\[0\].id.d2
*255 ringosc.dstage\[0\].id.in
*256 ringosc.dstage\[0\].id.out
*257 ringosc.dstage\[0\].id.trim\[0\]
*258 ringosc.dstage\[0\].id.trim\[1\]
*259 ringosc.dstage\[0\].id.ts
*260 ringosc.dstage\[10\].id.d0
*261 ringosc.dstage\[10\].id.d1
*262 ringosc.dstage\[10\].id.d2
*263 ringosc.dstage\[10\].id.in
*264 ringosc.dstage\[10\].id.out
*265 ringosc.dstage\[10\].id.trim\[0\]
*266 ringosc.dstage\[10\].id.trim\[1\]
*267 ringosc.dstage\[10\].id.ts
*268 ringosc.dstage\[11\].id.d0
*269 ringosc.dstage\[11\].id.d1
*270 ringosc.dstage\[11\].id.d2
*271 ringosc.dstage\[11\].id.out
*272 ringosc.dstage\[11\].id.trim\[0\]
*273 ringosc.dstage\[11\].id.trim\[1\]
*274 ringosc.dstage\[11\].id.ts
*275 ringosc.dstage\[1\].id.d0
*276 ringosc.dstage\[1\].id.d1
*277 ringosc.dstage\[1\].id.d2
*278 ringosc.dstage\[1\].id.out
*279 ringosc.dstage\[1\].id.trim\[0\]
*280 ringosc.dstage\[1\].id.trim\[1\]
*281 ringosc.dstage\[1\].id.ts
*282 ringosc.dstage\[2\].id.d0
*283 ringosc.dstage\[2\].id.d1
*284 ringosc.dstage\[2\].id.d2
*285 ringosc.dstage\[2\].id.out
*286 ringosc.dstage\[2\].id.trim\[0\]
*287 ringosc.dstage\[2\].id.trim\[1\]
*288 ringosc.dstage\[2\].id.ts
*289 ringosc.dstage\[3\].id.d0
*290 ringosc.dstage\[3\].id.d1
*291 ringosc.dstage\[3\].id.d2
*292 ringosc.dstage\[3\].id.out
*293 ringosc.dstage\[3\].id.trim\[0\]
*294 ringosc.dstage\[3\].id.trim\[1\]
*295 ringosc.dstage\[3\].id.ts
*296 ringosc.dstage\[4\].id.d0
*297 ringosc.dstage\[4\].id.d1
*298 ringosc.dstage\[4\].id.d2
*299 ringosc.dstage\[4\].id.out
*300 ringosc.dstage\[4\].id.trim\[0\]
*301 ringosc.dstage\[4\].id.trim\[1\]
*302 ringosc.dstage\[4\].id.ts
*303 ringosc.dstage\[5\].id.d0
*304 ringosc.dstage\[5\].id.d1
*305 ringosc.dstage\[5\].id.d2
*306 ringosc.dstage\[5\].id.out
*307 ringosc.dstage\[5\].id.trim\[0\]
*308 ringosc.dstage\[5\].id.trim\[1\]
*309 ringosc.dstage\[5\].id.ts
*310 ringosc.dstage\[6\].id.d0
*311 ringosc.dstage\[6\].id.d1
*312 ringosc.dstage\[6\].id.d2
*313 ringosc.dstage\[6\].id.out
*314 ringosc.dstage\[6\].id.trim\[0\]
*315 ringosc.dstage\[6\].id.trim\[1\]
*316 ringosc.dstage\[6\].id.ts
*317 ringosc.dstage\[7\].id.d0
*318 ringosc.dstage\[7\].id.d1
*319 ringosc.dstage\[7\].id.d2
*320 ringosc.dstage\[7\].id.out
*321 ringosc.dstage\[7\].id.trim\[0\]
*322 ringosc.dstage\[7\].id.trim\[1\]
*323 ringosc.dstage\[7\].id.ts
*324 ringosc.dstage\[8\].id.d0
*325 ringosc.dstage\[8\].id.d1
*326 ringosc.dstage\[8\].id.d2
*327 ringosc.dstage\[8\].id.out
*328 ringosc.dstage\[8\].id.trim\[0\]
*329 ringosc.dstage\[8\].id.trim\[1\]
*330 ringosc.dstage\[8\].id.ts
*331 ringosc.dstage\[9\].id.d0
*332 ringosc.dstage\[9\].id.d1
*333 ringosc.dstage\[9\].id.d2
*334 ringosc.dstage\[9\].id.trim\[0\]
*335 ringosc.dstage\[9\].id.trim\[1\]
*336 ringosc.dstage\[9\].id.ts
*337 ringosc.iss.ctrl0
*338 ringosc.iss.d0
*339 ringosc.iss.d1
*340 ringosc.iss.d2
*341 ringosc.iss.one
*342 ringosc.iss.reset
*343 ringosc.iss.trim\[0\]
*344 ringosc.iss.trim\[1\]
*345 net1
*346 net2
*347 net3
*348 net4
*349 net5
*350 net6
*351 net7
*352 net8
*353 net9
*354 net10
*355 net11
*356 net12
*357 net13
*358 net14
*359 net15
*360 net16
*361 net17
*362 net18
*363 net19
*364 net20
*365 net21
*366 net22
*367 net23
*368 net24
*369 net25
*370 net26
*371 net27
*372 net28
*373 net29
*374 net30
*375 net31
*376 net32
*377 net33
*378 net34
*379 net35
*380 net36
*381 net37
*382 net38
*383 net39
*384 net40
*385 net41
*386 net42
*387 net43
*388 net44
*389 net45
*390 net46

*D_NET *0 0.00042287193864
*CONN
*P clockc O
*I output39:X O
*CAP
0 *0:1 2.3813806740000006e-05
1 *0:3 0.00039905813189999997
2 output39:X 0
3 *0:2 0
*RES
0 *0:1 *0:2 0.15178571428571427
1 *0:3 *0:4 0.6846333333333334
2 output39:X output39:X 0
3 output39:X *0:1 0
4 *0:2 *0:4 0
*END

*D_NET *1 0.00042287193864
*CONN
*P clockd[0] O
*I output40:X O
*CAP
4 *1:1 2.3813806740000006e-05
5 *1:3 0.00039905813189999997
6 output40:X 0
7 *1:2 0
*RES
5 *1:1 *1:2 0.15178571428571427
6 *1:3 *1:4 0.6846333333333334
7 output40:X output40:X 0
8 output40:X *1:1 0
9 *1:2 *1:4 0
*END

*D_NET *2 0.00042287193864
*CONN
*P clockd[1] O
*I output41:X O
*CAP
8 *2:1 0.00039905813189999997
9 *2:3 2.3813806740000006e-05
10 output41:X 0
*RES
10 *2:1 *2:2 0.6846333333333334
11 *2:3 *2:4 0.15178571428571427
12 *2:3 *2:2 0
13 output41:X output41:X 0
14 output41:X *2:4 0
*END

*D_NET *3 0.0005682195727599999
*CONN
*P clockd[2] O
*I output42:X O
*CAP
11 *3:1 0.00012974410066
12 *3:3 0.00043847547209999995
13 output42:X 0
*RES
15 *3:1 *3:2 1.3660714285714284
16 *3:3 *3:4 0.7567
17 output42:X output42:X 0
18 output42:X *3:2 0
19 *3:1 *3:3 0
*END

*D_NET *4 0.00063291299678
*CONN
*P clockd[3] O
*I output43:X O
*CAP
14 *4:1 0.00063291299678
15 output43:X 0
*RES
20 *4:1 *4:2 7.133928571428571
21 output43:X output43:X 0
22 output43:X *4:2 0
*END

*D_NET *5 0.00058176737952
*CONN
*P clockp[0] O
*I output44:X O
*CAP
16 *5:1 0.00018270924762000003
17 *5:3 0.00039905813189999997
18 output44:X 0
19 *5:2 0
*RES
23 *5:1 *5:2 1.9732142857142856
24 *5:3 *5:4 0.6846333333333334
25 output44:X output44:X 0
26 output44:X *5:1 0
27 *5:2 *5:4 0
*END

*D_NET *6 0.00063291299678
*CONN
*P clockp[1] O
*I output45:X O
*CAP
20 *6:1 0.00063291299678
21 output45:X 0
*RES
28 *6:1 *6:2 7.133928571428571
29 output45:X output45:X 0
30 output45:X *6:2 0
*END

*D_NET *7 0.0006858781437400002
*CONN
*P dco I
*I input1:A I
*CAP
22 *7:1 0.0006858781437400002
23 input1:A 0
*RES
31 *7:1 *7:2 7.741071428571428
32 input1:A input1:A 0
33 input1:A *7:2 0
*END

*D_NET *8 0.00047583708559999997
*CONN
*P div[0] I
*I input2:A I
*CAP
24 *8:1 7.67789537e-05
25 *8:3 0.00039905813189999997
26 input2:A 0
27 *8:2 0
*RES
34 *8:1 *8:2 0.7589285714285713
35 *8:3 *8:4 0.6846333333333334
36 input2:A input2:A 0
37 input2:A *8:1 0
38 *8:2 *8:3 0
*END

*D_NET *9 0.0008671473575800001
*CONN
*P div[1] I
*I input3:A I
*CAP
28 *9:1 0.00012830406688
29 *9:2 0.0007388432907000001
30 input3:A 0
*RES
39 *9:1 input3:A 1.232142857142857
40 *9:2 *9:3 8.348214285714285
41 input3:A input3:A 0
42 *9:1 *9:2 0
*END

*D_NET *10 0.0007388432907000001
*CONN
*P div[2] I
*I input4:A I
*CAP
31 *10:1 0.0007388432907000001
32 input4:A 0
*RES
43 *10:1 *10:2 8.348214285714285
44 input4:A input4:A 0
45 input4:A *10:1 0
*END

*D_NET *11 0.00108705459334
*CONN
*P div[3] I
*I input5:A I
*CAP
33 *11:1 0.0006858781437400002
34 *11:3 0.00040117644959999997
35 input5:A 0
*RES
46 *11:1 *11:2 7.741071428571428
47 *11:3 input5:A 4.107142857142857
48 *11:3 *11:2 0
49 input5:A input5:A 0
*END

*D_NET *12 0.00082816558862
*CONN
*P div[4] I
*I input6:A I
*CAP
36 *12:1 8.932229792e-05
37 *12:2 0.0007388432907000001
38 input6:A 0
*RES
50 *12:1 input6:A 0.8214285714285714
51 *12:2 *12:3 8.348214285714285
52 input6:A input6:A 0
53 *12:1 *12:2 0
*END

*D_NET *13 0.00082816558862
*CONN
*P ext_trim[0] I
*I input7:A I
*CAP
39 *13:1 8.932229792e-05
40 *13:2 0.0007388432907000001
41 input7:A 0
*RES
54 *13:1 input7:A 0.8214285714285714
55 *13:2 *13:3 8.348214285714285
56 input7:A input7:A 0
57 *13:1 *13:2 0
*END

*D_NET *14 0.0006858781437400002
*CONN
*P ext_trim[10] I
*I input8:A I
*CAP
42 *14:1 0.0006858781437400002
43 input8:A 0
*RES
58 *14:1 *14:2 7.741071428571428
59 input8:A input8:A 0
60 input8:A *14:2 0
*END

*D_NET *15 0.0007388432907000001
*CONN
*P ext_trim[11] I
*I input9:A I
*CAP
44 *15:1 0.0007388432907000001
45 input9:A 0
*RES
61 *15:1 *15:2 8.348214285714285
62 input9:A input9:A 0
63 input9:A *15:1 0
*END

*D_NET *16 0.00050231965908
*CONN
*P ext_trim[12] I
*I input10:A I
*CAP
46 *16:1 0.00010326152718000001
47 *16:3 0.00039905813189999997
48 input10:A 0
*RES
64 *16:1 *16:2 1.0624999999999998
65 *16:3 *16:4 0.6846333333333334
66 input10:A input10:A 0
67 input10:A *16:2 0
68 *16:1 *16:3 0
*END

*D_NET *17 0.0007752004416600002
*CONN
*P ext_trim[13] I
*I input11:A I
*CAP
49 *17:1 0.0006858781437400002
50 *17:3 8.932229792e-05
51 input11:A 0
*RES
69 *17:1 *17:2 7.741071428571428
70 *17:3 input11:A 0.8214285714285714
71 *17:3 *17:2 0
72 input11:A input11:A 0
*END

*D_NET *18 0.0007752004416600002
*CONN
*P ext_trim[14] I
*I input12:A I
*CAP
52 *18:1 0.0006858781437400002
53 *18:3 8.932229792e-05
54 input12:A 0
*RES
73 *18:1 *18:2 7.741071428571428
74 *18:3 input12:A 0.8214285714285714
75 *18:3 *18:2 0
76 input12:A input12:A 0
*END

*D_NET *19 0.00042287193864
*CONN
*P ext_trim[15] I
*I input13:A I
*CAP
55 *19:1 2.3813806740000006e-05
56 *19:3 0.00039905813189999997
57 input13:A 0
58 *19:2 0
*RES
77 *19:1 *19:2 0.15178571428571427
78 *19:3 *19:4 0.6846333333333334
79 input13:A input13:A 0
80 input13:A *19:1 0
81 *19:2 *19:3 0
*END

*D_NET *20 0.0009209693568600001
*CONN
*P ext_trim[16] I
*I input14:A I
*CAP
59 input14:A 8.932229792e-05
60 *20:2 0.00020919182110000001
61 *20:4 0.00062245523784
62 *20:1 0
*RES
82 input14:A *20:1 0.8214285714285714
83 *20:2 *20:3 2.276785714285714
84 *20:4 *20:3 0.8214285714285714
85 *20:4 *20:5 6.07142857142857
86 input14:A input14:A 0
87 *20:1 *20:2 0
*END

*D_NET *21 0.0004364197454
*CONN
*P ext_trim[17] I
*I input15:A I
*CAP
63 *21:1 0.0003596407917
64 *21:3 7.67789537e-05
65 input15:A 0
*RES
88 *21:1 *21:2 0.6125666666666667
89 *21:3 *21:4 0.7589285714285713
90 *21:3 *21:2 0
91 input15:A input15:A 0
92 input15:A *21:4 0
*END

*D_NET *22 0.0007388432907000001
*CONN
*P ext_trim[18] I
*I input16:A I
*CAP
66 *22:1 0.0007388432907000001
67 input16:A 0
*RES
93 *22:1 *22:2 8.348214285714285
94 input16:A input16:A 0
95 input16:A *22:1 0
*END

*D_NET *23 0.00047583708559999997
*CONN
*P ext_trim[19] I
*I input17:A I
*CAP
68 *23:1 7.67789537e-05
69 *23:3 0.00039905813189999997
70 input17:A 0
71 *23:2 0
*RES
96 *23:1 *23:2 0.7589285714285713
97 *23:3 *23:4 0.6846333333333334
98 input17:A input17:A 0
99 input17:A *23:1 0
100 *23:2 *23:3 0
*END

*D_NET *24 0.0007388432907000001
*CONN
*P ext_trim[1] I
*I input18:A I
*CAP
72 *24:1 0.0007388432907000001
73 input18:A 0
*RES
101 *24:1 *24:2 8.348214285714285
102 input18:A input18:A 0
103 input18:A *24:1 0
*END

*D_NET *25 0.0008316470589399999
*CONN
*P ext_trim[20] I
*I input19:A I
*CAP
74 *25:1 0.00036808726198
75 *25:3 0.00046355979695999994
76 input19:A 0
*RES
104 *25:1 *25:2 4.098214285714286
105 *25:3 *25:2 0.8214285714285714
106 *25:3 *25:4 4.249999999999999
107 input19:A input19:A 0
108 input19:A *25:1 0
*END

*D_NET *26 0.0004364197454
*CONN
*P ext_trim[21] I
*I input20:A I
*CAP
77 *26:1 0.0003596407917
78 *26:3 7.67789537e-05
79 *26:4 0
80 input20:A 0
*RES
109 *26:1 *26:2 0.6125666666666667
110 *26:3 *26:4 0.7589285714285713
111 *26:4 *26:2 0
112 input20:A input20:A 0
113 input20:A *26:3 0
*END

*D_NET *27 0.0007752004416600002
*CONN
*P ext_trim[22] I
*I input21:A I
*CAP
81 *27:1 0.0006858781437400002
82 *27:3 8.932229792e-05
83 input21:A 0
*RES
114 *27:1 *27:2 7.741071428571428
115 *27:3 input21:A 0.8214285714285714
116 *27:3 *27:2 0
117 input21:A input21:A 0
*END

*D_NET *28 0.00081888446076
*CONN
*P ext_trim[23] I
*I input22:A I
*CAP
84 *28:1 0.00026215696806
85 *28:3 0.0005567274927
86 input22:A 0
87 *28:2 0
*RES
118 *28:1 *28:2 2.883928571428571
119 *28:3 *28:4 0.9729000000000001
120 input22:A input22:A 0
121 input22:A *28:1 0
122 *28:2 *28:3 0
*END

*D_NET *29 0.0006858781437400002
*CONN
*P ext_trim[24] I
*I input23:A I
*CAP
88 *29:1 0.0006858781437400002
89 input23:A 0
*RES
123 *29:1 *29:2 7.741071428571428
124 input23:A input23:A 0
125 input23:A *29:2 0
*END

*D_NET *30 0.0007388432907000001
*CONN
*P ext_trim[25] I
*I input24:A I
*CAP
90 *30:1 0.0007388432907000001
91 input24:A 0
*RES
126 *30:1 *30:2 8.348214285714285
127 input24:A input24:A 0
128 input24:A *30:1 0
*END

*D_NET *31 0.0006858781437400002
*CONN
*P ext_trim[2] I
*I input25:A I
*CAP
92 *31:1 0.0006858781437400002
93 input25:A 0
*RES
129 *31:1 *31:2 7.741071428571428
130 input25:A input25:A 0
131 input25:A *31:2 0
*END

*D_NET *32 0.00047583708559999997
*CONN
*P ext_trim[3] I
*I input26:A I
*CAP
94 *32:1 7.67789537e-05
95 *32:3 0.00039905813189999997
96 input26:A 0
*RES
132 *32:1 *32:2 0.7589285714285713
133 *32:3 *32:4 0.6846333333333334
134 input26:A input26:A 0
135 input26:A *32:2 0
136 *32:1 *32:3 0
*END

*D_NET *33 0.0009701092864600002
*CONN
*P ext_trim[4] I
*I input27:A I
*CAP
97 *33:1 0.0006858781437400002
98 input27:A 0.00028423114272
99 *33:3 0
*RES
137 *33:1 *33:2 7.741071428571428
138 input27:A *33:3 2.875
139 *33:3 *33:2 0
140 input27:A input27:A 0
*END

*D_NET *34 0.00055528480604
*CONN
*P ext_trim[5] I
*I input28:A I
*CAP
100 *34:1 0.00015622667414000004
101 *34:3 0.00039905813189999997
102 input28:A 0
*RES
141 *34:1 *34:2 1.669642857142857
142 *34:3 *34:4 0.6846333333333334
143 input28:A input28:A 0
144 input28:A *34:2 0
145 *34:1 *34:3 0
*END

*D_NET *35 0.00038345459844
*CONN
*P ext_trim[6] I
*I input29:A I
*CAP
103 *35:1 0.0003596407917
104 *35:3 2.3813806740000006e-05
105 *35:4 0
106 input29:A 0
*RES
146 *35:1 *35:2 0.6125666666666667
147 *35:3 *35:4 0.15178571428571427
148 *35:4 *35:2 0
149 input29:A input29:A 0
150 input29:A *35:3 0
*END

*D_NET *36 0.00110103797134
*CONN
*P ext_trim[7] I
*I input30:A I
*CAP
107 *36:1 0.0003621946806399999
108 *36:2 0.0007388432907000001
109 input30:A 0
*RES
151 *36:1 input30:A 3.6964285714285707
152 *36:2 *36:3 8.348214285714285
153 input30:A input30:A 0
154 *36:1 *36:2 0
*END

*D_NET *37 0.0004364197454
*CONN
*P ext_trim[8] I
*I input31:A I
*CAP
110 *37:1 0.0003596407917
111 *37:3 7.67789537e-05
112 input31:A 0
*RES
155 *37:1 *37:2 0.6125666666666667
156 *37:3 *37:4 0.7589285714285713
157 *37:3 *37:2 0
158 input31:A input31:A 0
159 input31:A *37:4 0
*END

*D_NET *38 0.00047583708559999997
*CONN
*P ext_trim[9] I
*I input32:A I
*CAP
113 *38:1 7.67789537e-05
114 *38:3 0.00039905813189999997
115 input32:A 0
*RES
160 *38:1 *38:2 0.7589285714285713
161 *38:3 *38:4 0.6846333333333334
162 input32:A input32:A 0
163 input32:A *38:2 0
164 *38:1 *38:3 0
*END

*D_NET *39 0.00040993717191999997
*CONN
*P extclk_sel I
*I input33:A I
*CAP
116 *39:1 0.0003596407917
117 *39:3 5.029638022e-05
118 *39:4 0
119 input33:A 0
*RES
165 *39:1 *39:2 0.6125666666666667
166 *39:3 *39:4 0.45535714285714285
167 *39:4 *39:2 0
168 input33:A input33:A 0
169 input33:A *39:3 0
*END

*D_NET *40 0.00082816558862
*CONN
*P osc I
*I input34:A I
*CAP
120 *40:1 8.932229792e-05
121 *40:2 0.0007388432907000001
122 input34:A 0
*RES
170 *40:1 input34:A 0.8214285714285714
171 *40:2 *40:3 8.348214285714285
172 input34:A input34:A 0
173 *40:1 *40:2 0
*END

*D_NET *41 0.0007752004416600002
*CONN
*P reset I
*I input35:A I
*CAP
123 *41:1 0.0006858781437400002
124 *41:3 8.932229792e-05
125 input35:A 0
*RES
174 *41:1 *41:2 7.741071428571428
175 *41:3 input35:A 0.8214285714285714
176 *41:3 *41:2 0
177 input35:A input35:A 0
*END

*D_NET *42 0.0007362186727000002
*CONN
*P sel[0] I
*I input36:A I
*CAP
126 *42:1 0.0006858781437400002
127 *42:3 5.034052896000001e-05
128 input36:A 0
*RES
178 *42:1 *42:2 7.741071428571428
179 *42:3 input36:A 0.4107142857142857
180 *42:3 *42:2 0
181 input36:A input36:A 0
*END

*D_NET *43 0.00082816558862
*CONN
*P sel[1] I
*I input37:A I
*CAP
129 input37:A 8.932229792e-05
130 *43:2 0.0007388432907000001
131 *43:1 0
*RES
182 input37:A *43:1 0.8214285714285714
183 *43:2 *43:3 8.348214285714285
184 input37:A input37:A 0
185 *43:1 *43:2 0
*END

*D_NET *44 0.0008141822106200002
*CONN
*P sel[2] I
*I input38:A I
*CAP
132 *44:1 0.0006858781437400002
133 *44:3 0.00012830406688
134 input38:A 0
*RES
186 *44:1 *44:2 7.741071428571428
187 *44:3 input38:A 1.232142857142857
188 *44:3 *44:2 0
189 input38:A input38:A 0
*END

*D_NET *45 0.0008435659606
*CONN
*I _380_:A1 I
*I _292_:B I
*I _290_:X O
*CAP
135 *45:1 0.00019595053436
136 _380_:A1 4.017137184e-05
137 _290_:X 0.00032321291168
138 *45:3 0.00028423114272
139 *45:4 0
140 _292_:B 0
*RES
190 *45:1 *45:2 2.1249999999999996
191 _380_:A1 *45:3 0.30357142857142855
192 _290_:X *45:3 3.2857142857142856
193 *45:3 *45:4 2.875
194 *45:4 *45:1 0
195 _292_:B _292_:B 0
196 _292_:B *45:2 0
197 _380_:A1 _380_:A1 0
198 _290_:X _290_:X 0
*END

*D_NET *46 0.00021980848984000004
*CONN
*I _376_:A0 I
*I _292_:X O
*CAP
141 *46:1 0.00016946796088000002
142 _292_:X 5.034052896000001e-05
143 _376_:A0 0
144 *46:3 0
*RES
199 *46:1 *46:2 1.8214285714285714
200 _292_:X *46:3 0.4107142857142857
201 _376_:A0 _376_:A0 0
202 _376_:A0 *46:1 0
203 *46:3 *46:2 0
204 _292_:X _292_:X 0
*END

*D_NET *47 0.0028453249759200004
*CONN
*I _374_:A0 I
*I _307_:B1 I
*I _299_:Y O
*CAP
145 _299_:Y 0.0014057228883200001
146 *47:2 0.00016946796088000002
147 _307_:B1 0.00044015821855999997
148 *47:4 0.00082997590816
149 _374_:A0 0
150 *47:1 0
*RES
205 _299_:Y *47:1 13.964285714285714
206 *47:2 *47:3 1.8214285714285714
207 _307_:B1 _299_:Y 4.517857142857142
208 _299_:Y _299_:Y 0.6071428571428571
209 *47:4 _374_:A0 8.625
210 _374_:A0 _374_:A0 0
211 _299_:Y _299_:Y 0
212 *47:1 *47:2 0
213 *47:4 *47:3 0
214 _307_:B1 _307_:B1 0
*END

*D_NET *48 0.0019102263955200001
*CONN
*I _372_:A0 I
*I _307_:A3 I
*I _304_:B1 I
*I _297_:A I
*I _296_:X O
*CAP
151 *48:1 0.00012830406688
152 *48:2 0.00024891568132000004
153 _296_:X 8.932229792e-05
154 *48:3 0.00022243310784000002
155 _304_:B1 0.00016728583584
156 *48:5 0.00022243310784000002
157 *48:8 0.00083153229788
158 _372_:A0 0
159 _307_:A3 0
160 _297_:A 0
161 *48:4 0
162 *48:6 0
*RES
215 *48:1 _297_:A 1.232142857142857
216 *48:2 *48:3 2.7321428571428568
217 _296_:X *48:4 0.8214285714285714
218 *48:3 *48:5 2.4285714285714284
219 _304_:B1 *48:6 1.6428571428571428
220 *48:5 *48:7 2.4285714285714284
221 *48:8 *48:2 9.410714285714285
222 _372_:A0 _372_:A0 0
223 _372_:A0 *48:8 0
224 _307_:A3 _307_:A3 0
225 _307_:A3 *48:2 0
226 _297_:A _297_:A 0
227 *48:1 *48:3 0
228 _296_:X _296_:X 0
229 *48:4 *48:5 0
230 _304_:B1 _304_:B1 0
231 *48:6 *48:7 0
*END

*D_NET *49 0.00036175218768000003
*CONN
*I _370_:A0 I
*I _291_:X O
*CAP
163 *49:1 0.00011650281392
164 _291_:X 0.00024524937376
165 _370_:A0 0
166 *49:3 0
*RES
232 *49:1 *49:2 1.2142857142857142
233 _291_:X *49:3 2.464285714285714
234 _370_:A0 _370_:A0 0
235 _370_:A0 *49:1 0
236 *49:3 *49:2 0
237 _291_:X _291_:X 0
*END

*D_NET *50 0.00283564653428
*CONN
*I _368_:A0 I
*I _302_:Y O
*CAP
167 *50:1 0.0003621946806399999
168 *50:2 0.00247345185364
169 _368_:A0 0
170 _302_:Y 0
*RES
238 *50:1 _368_:A0 3.6964285714285707
239 *50:2 *50:3 28.232142857142854
240 _368_:A0 _368_:A0 0
241 *50:1 *50:2 0
242 _302_:Y _302_:Y 0
243 _302_:Y *50:3 0
*END

*D_NET *51 0.00016847543872000001
*CONN
*I _366_:A0 I
*I _304_:X O
*CAP
171 *51:1 0.00016847543872000001
172 _304_:X 0
173 _366_:A0 0
*RES
244 *51:1 _304_:X 1.232142857142857
245 *51:1 _366_:A0 0.30357142857142855
246 _304_:X _304_:X 0
247 _366_:A0 _366_:A0 0
*END

*D_NET *52 0.0014419321259600002
*CONN
*I _364_:A0 I
*I _293_:X O
*CAP
174 *52:1 0.00129894673856
175 *52:2 0.00014298538739999998
176 _364_:A0 0
177 _293_:X 0
178 *52:4 0
*RES
248 *52:1 _364_:A0 0.30357142857142855
249 *52:2 *52:3 1.5178571428571426
250 *52:1 *52:4 13.142857142857142
251 _364_:A0 _364_:A0 0
252 _293_:X _293_:X 0
253 _293_:X *52:2 0
254 *52:4 *52:3 0
*END

*D_NET *53 0.00222334626732
*CONN
*I _362_:A0 I
*I _305_:X O
*CAP
179 *53:1 0.00030188082828000006
180 *53:3 0.0019214654390400001
181 _362_:A0 0
182 _305_:X 0
*RES
255 *53:1 *53:2 3.339285714285714
256 *53:3 _305_:X 20.124999999999996
257 *53:3 *53:1 0
258 _362_:A0 _362_:A0 0
259 _362_:A0 *53:2 0
260 _305_:X _305_:X 0
*END

*D_NET *54 0.001049784398
*CONN
*I _360_:A0 I
*I _303_:X O
*CAP
183 *54:1 0.00016946796088000002
184 *54:3 0.00040117644959999997
185 _360_:A0 0.0004791399875199999
186 *54:4 0
187 _303_:X 0
*RES
261 *54:1 *54:2 1.8214285714285714
262 *54:3 _303_:X 4.107142857142857
263 _360_:A0 *54:4 4.928571428571428
264 _360_:A0 _360_:A0 0
265 *54:4 *54:1 0
266 *54:3 *54:2 0
267 _303_:X _303_:X 0
*END

*D_NET *55 0.0068425245974
*CONN
*I _358_:A0 I
*I _301_:Y O
*CAP
188 *55:1 0.00016946796088000002
189 *55:3 8.932229792e-05
190 *55:4 0.0027912427354000006
191 *55:6 0.0018824836700799999
192 *55:8 0.00022243310784000002
193 *55:10 0.00168757482528
194 _358_:A0 0
195 *55:11 0
196 _301_:Y 0
197 *55:7 0
*RES
268 *55:1 *55:2 1.8214285714285714
269 *55:3 _301_:Y 0.8214285714285714
270 *55:4 *55:5 31.875
271 *55:6 *55:7 19.71428571428571
272 *55:8 *55:9 2.4285714285714284
273 *55:10 *55:11 17.660714285714285
274 _358_:A0 _358_:A0 0
275 _358_:A0 *55:1 0
276 *55:11 *55:2 0
277 _301_:Y _301_:Y 0
278 *55:3 *55:5 0
279 *55:6 *55:4 0
280 *55:7 *55:9 0
281 *55:10 *55:8 0
*END

*D_NET *56 0.0015730443553200002
*CONN
*I _356_:A0 I
*I _306_:X O
*CAP
198 *56:1 0.0015730443553200002
199 _356_:A0 0
200 _306_:X 0
*RES
282 *56:1 *56:2 17.91071428571428
283 _356_:A0 _356_:A0 0
284 _356_:A0 *56:1 0
285 _306_:X _306_:X 0
286 _306_:X *56:2 0
*END

*D_NET *57 0.00055666103248
*CONN
*I _354_:A0 I
*I _307_:X O
*CAP
201 *57:1 0.00011650281392
202 *57:3 0.00044015821855999997
203 _354_:A0 0
204 _307_:X 0
*RES
287 *57:1 *57:2 1.2142857142857142
288 *57:3 _307_:X 4.517857142857142
289 _354_:A0 _354_:A0 0
290 _354_:A0 *57:1 0
291 *57:3 *57:2 0
292 _307_:X _307_:X 0
*END

*D_NET *58 0.0031736760884400004
*CONN
*I _378_:A0 I
*I _303_:B1 I
*I _300_:Y O
*CAP
205 *58:1 0.0015730443553200002
206 *58:3 0.0016006317331200002
207 _378_:A0 0
208 _300_:Y 0
209 _303_:B1 0
210 *58:4 0
*RES
293 *58:1 *58:2 17.91071428571428
294 *58:3 _303_:B1 0.6071428571428571
295 *58:3 *58:4 16.017857142857142
296 _378_:A0 _378_:A0 0
297 _378_:A0 *58:1 0
298 _300_:Y _300_:Y 0
299 _300_:Y *58:2 0
300 _303_:B1 _303_:B1 0
301 *58:4 *58:5 0
*END

*D_NET *59 0.0010113173292
*CONN
*I _377_:A0 I
*I _308_:X O
*CAP
211 *59:1 0.0008050497244000001
212 *59:3 0.0002062676048
213 _377_:A0 0
214 _308_:X 0
*RES
302 *59:1 *59:2 9.107142857142856
303 *59:3 _308_:X 2.0535714285714284
304 _377_:A0 _377_:A0 0
305 _377_:A0 *59:1 0
306 *59:3 *59:2 0
307 _308_:X _308_:X 0
*END

*D_NET *60 0.0012359107692799997
*CONN
*I _380_:A0 I
*I _313_:B I
*I _309_:X O
*CAP
215 *60:1 4.017137184e-05
216 _309_:X 0.00063625666624
217 *60:2 0.00019728805056
218 _313_:B 0.0003621946806399999
219 _380_:A0 0
*RES
308 *60:1 _313_:B 0.30357142857142855
309 _309_:X *60:1 6.160714285714286
310 _309_:X _309_:X 0.30357142857142855
311 *60:2 _380_:A0 1.232142857142857
312 *60:2 *60:3 0.6071428571428571
313 _313_:B *60:3 3.6964285714285707
314 _313_:B _313_:B 0
315 _309_:X _309_:X 0
316 _380_:A0 _380_:A0 0
*END

*D_NET *61 0.0042192794787200005
*CONN
*I _375_:A0 I
*I _316_:X O
*CAP
220 *61:1 5.034052896000001e-05
221 *61:2 0.0008580148713600001
222 *61:4 0.00240992715392
223 *61:7 0.0001879663232
224 _316_:X 0.00071303060128
225 _375_:A0 0
226 *61:5 0
*RES
317 *61:1 _375_:A0 0.4107142857142857
318 *61:2 *61:3 9.714285714285714
319 *61:4 *61:5 24.84821428571428
320 *61:4 *61:6 0.30357142857142855
321 *61:7 *61:6 1.4375
322 *61:7 *61:8 0.30357142857142855
323 _316_:X *61:8 7.3928571428571415
324 _375_:A0 _375_:A0 0
325 *61:1 *61:2 0
326 *61:5 *61:3 0
327 _316_:X _316_:X 0
*END

*D_NET *62 0.0034148293620400003
*CONN
*I _373_:A0 I
*I _317_:X O
*CAP
227 *62:1 9.002024044000002e-05
228 _317_:X 0.0033248091216000002
229 _373_:A0 0
230 *62:3 0
*RES
328 *62:1 *62:2 0.9107142857142857
329 _317_:X *62:3 34.910714285714285
330 _373_:A0 _373_:A0 0
331 _373_:A0 *62:1 0
332 *62:3 *62:2 0
333 _317_:X _317_:X 0
*END

*D_NET *63 0.00014298538739999998
*CONN
*I _380_:X O
*I _318_:A I
*CAP
231 *63:1 0.00014298538739999998
232 _380_:X 0
233 _318_:A 0
*RES
334 *63:1 *63:2 1.5178571428571426
335 _380_:X _380_:X 0
336 _380_:X *63:2 0
337 _318_:A _318_:A 0
338 _318_:A *63:1 0
*END

*D_NET *64 0.00044416827316
*CONN
*I _371_:A0 I
*I _318_:X O
*CAP
234 _318_:X 8.932229792e-05
235 *64:2 0.00035484597524
236 _371_:A0 0
237 *64:1 0
*RES
339 _318_:X *64:1 0.8214285714285714
340 *64:2 *64:3 3.946428571428571
341 _371_:A0 _371_:A0 0
342 _371_:A0 *64:3 0
343 _318_:X _318_:X 0
344 *64:1 *64:2 0
*END

*D_NET *65 0.0030519596696799997
*CONN
*I _369_:A0 I
*I _319_:X O
*CAP
238 _369_:A0 0.00012830406688
239 *65:2 0.0029236556028
240 *65:1 0
241 _319_:X 0
*RES
345 _369_:A0 *65:1 1.232142857142857
346 *65:2 *65:3 33.39285714285714
347 _369_:A0 _369_:A0 0
348 *65:1 *65:2 0
349 _319_:X _319_:X 0
350 _319_:X *65:3 0
*END

*D_NET *66 0.00363451381424
*CONN
*I _367_:A0 I
*I _319_:B1 I
*I _317_:B1 I
*I _312_:B1 I
*I _310_:Y O
*CAP
242 _310_:Y 0.00028423114272
243 *66:2 0.00016946796088000002
244 _367_:A0 0.00121979359776
245 _312_:B1 4.017137184e-05
246 *66:4 0.0004791399875199999
247 *66:6 6.898398368e-05
248 *66:7 0.00055710352544
249 *66:3 0.00038132854871999994
250 *66:8 0.00043429369568000003
251 *66:1 0
252 _319_:B1 0
253 _317_:B1 0
*RES
351 _310_:Y *66:1 2.875
352 *66:2 *66:3 1.8214285714285714
353 _367_:A0 *66:4 12.732142857142856
354 _312_:B1 *66:5 0.30357142857142855
355 *66:4 *66:5 4.928571428571428
356 *66:6 _317_:B1 0.6071428571428571
357 *66:7 *66:6 5.75
358 *66:3 *66:8 4.249999999999999
359 *66:8 *66:9 4.857142857142857
360 *66:1 *66:9 0
361 _310_:Y _310_:Y 0
362 _319_:B1 _319_:B1 0
363 _319_:B1 *66:3 0
364 *66:4 *66:2 0
365 _367_:A0 _367_:A0 0
366 _312_:B1 _312_:B1 0
367 _317_:B1 _317_:B1 0
368 *66:7 *66:8 0
*END

*D_NET *67 0.00102998566452
*CONN
*I _365_:A0 I
*I _318_:B I
*I _313_:Y O
*CAP
254 _313_:Y 0.0002062676048
255 *67:2 0.00046077626916000004
256 *67:4 0.0002062676048
257 _318_:B 4.017137184e-05
258 *67:6 0.00011650281392
259 *67:1 0
260 _365_:A0 0
*RES
369 _313_:Y *67:1 2.0535714285714284
370 *67:2 *67:3 5.160714285714286
371 *67:4 *67:5 2.0535714285714284
372 _318_:B *67:5 0.30357142857142855
373 *67:6 *67:7 1.2142857142857142
374 *67:1 *67:7 0
375 _313_:Y _313_:Y 0
376 _318_:B _318_:B 0
377 _318_:B *67:3 0
378 _365_:A0 _365_:A0 0
379 _365_:A0 *67:2 0
380 *67:4 *67:6 0
*END

*D_NET *68 0.00053463100656
*CONN
*I _363_:A0 I
*I _320_:X O
*CAP
261 *68:1 0.0002062676048
262 *68:2 0.00032836340175999997
263 _320_:X 0
264 _363_:A0 0
*RES
381 *68:1 _320_:X 2.0535714285714284
382 *68:2 *68:3 3.642857142857143
383 _320_:X _320_:X 0
384 *68:1 *68:2 0
385 _363_:A0 _363_:A0 0
386 _363_:A0 *68:3 0
*END

*D_NET *69 0.0013613931374399997
*CONN
*I _361_:A0 I
*I _314_:X O
*CAP
265 *69:1 0.000382875168
266 *69:3 0.0002062676048
267 *69:4 0.00011650281392
268 *69:6 0.0006557475507199999
269 _361_:A0 0
270 _314_:X 0
271 *69:7 0
*RES
387 *69:1 _361_:A0 0.30357142857142855
388 *69:1 *69:2 3.4910714285714284
389 *69:3 _314_:X 2.0535714285714284
390 *69:4 *69:5 1.2142857142857142
391 *69:6 *69:7 6.366071428571428
392 *69:6 *69:2 0.30357142857142855
393 _361_:A0 _361_:A0 0
394 _314_:X _314_:X 0
395 *69:3 *69:4 0