*SPEF "IEEE 1481-1998"
*DESIGN "digital_pll"
*DATE "Wed Apr 28 12:31:38 2021"
*VENDOR "AUC CSCE Department"
*PROGRAM "SPEF Extractor"
*VERSION "1.0"
*DESIGN_FLOW "PIN_CAP NONE"
*DIVIDER /
*DELIMITER :
*BUS_DELIMITER []
*T_UNIT 1.00000 NS
*C_UNIT 1.00000 PF
*R_UNIT 1.00000 OHM
*L_UNIT 1.00000 HENRY


*NAME_MAP
*0 clockc
*1 clockd[0]
*2 clockd[1]
*3 clockd[2]
*4 clockd[3]
*5 clockp[0]
*6 clockp[1]
*7 dco
*8 div[0]
*9 div[1]
*10 div[2]
*11 div[3]
*12 div[4]
*13 ext_trim[0]
*14 ext_trim[10]
*15 ext_trim[11]
*16 ext_trim[12]
*17 ext_trim[13]
*18 ext_trim[14]
*19 ext_trim[15]
*20 ext_trim[16]
*21 ext_trim[17]
*22 ext_trim[18]
*23 ext_trim[19]
*24 ext_trim[1]
*25 ext_trim[20]
*26 ext_trim[21]
*27 ext_trim[22]
*28 ext_trim[23]
*29 ext_trim[24]
*30 ext_trim[25]
*31 ext_trim[2]
*32 ext_trim[3]
*33 ext_trim[4]
*34 ext_trim[5]
*35 ext_trim[6]
*36 ext_trim[7]
*37 ext_trim[8]
*38 ext_trim[9]
*39 extclk_sel
*40 osc
*41 reset
*42 sel[0]
*43 sel[1]
*44 sel[2]
*45 _000_
*46 _001_
*47 _002_
*48 _003_
*49 _004_
*50 _005_
*51 _006_
*52 _007_
*53 _008_
*54 _009_
*55 _010_
*56 _011_
*57 _012_
*58 _013_
*59 _014_
*60 _015_
*61 _016_
*62 _017_
*63 _018_
*64 _019_
*65 _020_
*66 _021_
*67 _022_
*68 _023_
*69 _024_
*70 _025_
*71 _026_
*72 _027_
*73 _028_
*74 _029_
*75 _030_
*76 _031_
*77 _032_
*78 _033_
*79 _034_
*80 _035_
*81 _036_
*82 _037_
*83 _038_
*84 _039_
*85 _040_
*86 _041_
*87 _042_
*88 _043_
*89 _044_
*90 _045_
*91 _046_
*92 _047_
*93 _048_
*94 _049_
*95 _050_
*96 _051_
*97 _052_
*98 _053_
*99 _054_
*100 _055_
*101 _056_
*102 _057_
*103 _058_
*104 _059_
*105 _060_
*106 _061_
*107 _062_
*108 _063_
*109 _064_
*110 _065_
*111 _066_
*112 _067_
*113 _068_
*114 _069_
*115 _070_
*116 _071_
*117 _072_
*118 _073_
*119 _074_
*120 _075_
*121 _076_
*122 _077_
*123 _078_
*124 _079_
*125 _080_
*126 _081_
*127 _082_
*128 _083_
*129 _084_
*130 _085_
*131 _086_
*132 _087_
*133 _088_
*134 _089_
*135 _090_
*136 _091_
*137 _092_
*138 _093_
*139 _094_
*140 _095_
*141 _096_
*142 _097_
*143 _098_
*144 _099_
*145 _100_
*146 _101_
*147 _102_
*148 _103_
*149 _104_
*150 _105_
*151 _106_
*152 _107_
*153 _108_
*154 _109_
*155 _110_
*156 _111_
*157 _112_
*158 _113_
*159 _114_
*160 _115_
*161 _116_
*162 _117_
*163 _118_
*164 _119_
*165 _120_
*166 _121_
*167 _122_
*168 _123_
*169 _124_
*170 _125_
*171 _126_
*172 _127_
*173 _128_
*174 _129_
*175 _130_
*176 _131_
*177 _132_
*178 _133_
*179 _134_
*180 _135_
*181 _136_
*182 _137_
*183 _138_
*184 _139_
*185 _140_
*186 _141_
*187 _142_
*188 _143_
*189 _144_
*190 _145_
*191 _146_
*192 _147_
*193 _148_
*194 _149_
*195 _150_
*196 _151_
*197 _152_
*198 _153_
*199 _154_
*200 _155_
*201 _156_
*202 _157_
*203 _158_
*204 _159_
*205 _160_
*206 _161_
*207 _162_
*208 _163_
*209 _164_
*210 _165_
*211 _166_
*212 _167_
*213 _168_
*214 _169_
*215 _170_
*216 _171_
*217 _172_
*218 _173_
*219 _174_
*220 _175_
*221 nint\[0\]
*222 nint\[1\]
*223 nint\[2\]
*224 nint\[3\]
*225 pll_control.clock
*226 pll_control.count0\[0\]
*227 pll_control.count0\[1\]
*228 pll_control.count0\[2\]
*229 pll_control.count0\[3\]
*230 pll_control.count0\[4\]
*231 pll_control.count1\[0\]
*232 pll_control.count1\[1\]
*233 pll_control.count1\[2\]
*234 pll_control.count1\[3\]
*235 pll_control.count1\[4\]
*236 pll_control.oscbuf\[0\]
*237 pll_control.oscbuf\[1\]
*238 pll_control.oscbuf\[2\]
*239 pll_control.prep\[0\]
*240 pll_control.prep\[1\]
*241 pll_control.prep\[2\]
*242 pll_control.tint\[0\]
*243 pll_control.tint\[1\]
*244 pll_control.tint\[2\]
*245 pll_control.tint\[3\]
*246 pll_control.tint\[4\]
*247 pll_control.tval\[0\]
*248 pll_control.tval\[1\]
*249 resetb
*250 ringosc.c\[0\]
*251 ringosc.c\[1\]
*252 ringosc.dstage\[0\].id.d0
*253 ringosc.dstage\[0\].id.d1
*254 ringosc.dstage\[0\].id.d2
*255 ringosc.dstage\[0\].id.in
*256 ringosc.dstage\[0\].id.out
*257 ringosc.dstage\[0\].id.trim\[0\]
*258 ringosc.dstage\[0\].id.trim\[1\]
*259 ringosc.dstage\[0\].id.ts
*260 ringosc.dstage\[10\].id.d0
*261 ringosc.dstage\[10\].id.d1
*262 ringosc.dstage\[10\].id.d2
*263 ringosc.dstage\[10\].id.in
*264 ringosc.dstage\[10\].id.out
*265 ringosc.dstage\[10\].id.trim\[0\]
*266 ringosc.dstage\[10\].id.trim\[1\]
*267 ringosc.dstage\[10\].id.ts
*268 ringosc.dstage\[11\].id.d0
*269 ringosc.dstage\[11\].id.d1
*270 ringosc.dstage\[11\].id.d2
*271 ringosc.dstage\[11\].id.out
*272 ringosc.dstage\[11\].id.trim\[0\]
*273 ringosc.dstage\[11\].id.trim\[1\]
*274 ringosc.dstage\[11\].id.ts
*275 ringosc.dstage\[1\].id.d0
*276 ringosc.dstage\[1\].id.d1
*277 ringosc.dstage\[1\].id.d2
*278 ringosc.dstage\[1\].id.out
*279 ringosc.dstage\[1\].id.trim\[0\]
*280 ringosc.dstage\[1\].id.trim\[1\]
*281 ringosc.dstage\[1\].id.ts
*282 ringosc.dstage\[2\].id.d0
*283 ringosc.dstage\[2\].id.d1
*284 ringosc.dstage\[2\].id.d2
*285 ringosc.dstage\[2\].id.out
*286 ringosc.dstage\[2\].id.trim\[0\]
*287 ringosc.dstage\[2\].id.trim\[1\]
*288 ringosc.dstage\[2\].id.ts
*289 ringosc.dstage\[3\].id.d0
*290 ringosc.dstage\[3\].id.d1
*291 ringosc.dstage\[3\].id.d2
*292 ringosc.dstage\[3\].id.out
*293 ringosc.dstage\[3\].id.trim\[0\]
*294 ringosc.dstage\[3\].id.trim\[1\]
*295 ringosc.dstage\[3\].id.ts
*296 ringosc.dstage\[4\].id.d0
*297 ringosc.dstage\[4\].id.d1
*298 ringosc.dstage\[4\].id.d2
*299 ringosc.dstage\[4\].id.out
*300 ringosc.dstage\[4\].id.trim\[0\]
*301 ringosc.dstage\[4\].id.trim\[1\]
*302 ringosc.dstage\[4\].id.ts
*303 ringosc.dstage\[5\].id.d0
*304 ringosc.dstage\[5\].id.d1
*305 ringosc.dstage\[5\].id.d2
*306 ringosc.dstage\[5\].id.out
*307 ringosc.dstage\[5\].id.trim\[0\]
*308 ringosc.dstage\[5\].id.trim\[1\]
*309 ringosc.dstage\[5\].id.ts
*310 ringosc.dstage\[6\].id.d0
*311 ringosc.dstage\[6\].id.d1
*312 ringosc.dstage\[6\].id.d2
*313 ringosc.dstage\[6\].id.out
*314 ringosc.dstage\[6\].id.trim\[0\]
*315 ringosc.dstage\[6\].id.trim\[1\]
*316 ringosc.dstage\[6\].id.ts
*317 ringosc.dstage\[7\].id.d0
*318 ringosc.dstage\[7\].id.d1
*319 ringosc.dstage\[7\].id.d2
*320 ringosc.dstage\[7\].id.out
*321 ringosc.dstage\[7\].id.trim\[0\]
*322 ringosc.dstage\[7\].id.trim\[1\]
*323 ringosc.dstage\[7\].id.ts
*324 ringosc.dstage\[8\].id.d0
*325 ringosc.dstage\[8\].id.d1
*326 ringosc.dstage\[8\].id.d2
*327 ringosc.dstage\[8\].id.out
*328 ringosc.dstage\[8\].id.trim\[0\]
*329 ringosc.dstage\[8\].id.trim\[1\]
*330 ringosc.dstage\[8\].id.ts
*331 ringosc.dstage\[9\].id.d0
*332 ringosc.dstage\[9\].id.d1
*333 ringosc.dstage\[9\].id.d2
*334 ringosc.dstage\[9\].id.trim\[0\]
*335 ringosc.dstage\[9\].id.trim\[1\]
*336 ringosc.dstage\[9\].id.ts
*337 ringosc.iss.ctrl0
*338 ringosc.iss.d0
*339 ringosc.iss.d1
*340 ringosc.iss.d2
*341 ringosc.iss.one
*342 ringosc.iss.reset
*343 ringosc.iss.trim\[0\]
*344 ringosc.iss.trim\[1\]
*345 net1
*346 net2
*347 net3
*348 net4
*349 net5
*350 net6
*351 net7
*352 net8
*353 net9
*354 net10
*355 net11
*356 net12
*357 net13
*358 net14
*359 net15
*360 net16
*361 net17
*362 net18
*363 net19
*364 net20
*365 net21
*366 net22
*367 net23
*368 net24
*369 net25
*370 net26
*371 net27
*372 net28
*373 net29
*374 net30
*375 net31
*376 net32
*377 net33
*378 net34
*379 net35
*380 net36
*381 net37
*382 net38
*383 net39
*384 net40
*385 net41
*386 net42
*387 net43
*388 net44
*389 net45
*390 net46

*D_NET *0 0.00047583708559999997
*CONN
*P clockc O
*I output39:X O
*CAP
0 *0:1 0.00039905813189999997
1 *0:3 7.67789537e-05
2 output39:X 0
*RES
0 *0:1 *0:2 0.6846333333333334
1 *0:3 *0:4 0.7589285714285713
2 *0:3 *0:2 0
3 output39:X output39:X 0
4 output39:X *0:4 0
*END

*D_NET *1 0.00042287193864
*CONN
*P clockd[0] O
*I output40:X O
*CAP
3 *1:1 2.3813806740000006e-05
4 *1:3 0.00039905813189999997
5 output40:X 0
6 *1:2 0
*RES
5 *1:1 *1:2 0.15178571428571427
6 *1:3 *1:4 0.6846333333333334
7 output40:X output40:X 0
8 output40:X *1:1 0
9 *1:2 *1:4 0
*END

*D_NET *2 0.00042287193864
*CONN
*P clockd[1] O
*I output41:X O
*CAP
7 *2:1 0.00039905813189999997
8 *2:3 2.3813806740000006e-05
9 output41:X 0
*RES
10 *2:1 *2:2 0.6846333333333334
11 *2:3 *2:4 0.15178571428571427
12 *2:3 *2:2 0
13 output41:X output41:X 0
14 output41:X *2:4 0
*END

*D_NET *3 0.0010508441302
*CONN
*P clockd[2] O
*I output42:X O
*CAP
10 *3:1 0.00016728583584
11 *3:2 0.00012974410066
12 *3:4 0.0007538141937
13 output42:X 0
*RES
15 *3:1 output42:X 1.6428571428571428
16 *3:2 *3:3 1.3660714285714284
17 *3:4 *3:5 1.3332333333333333
18 output42:X output42:X 0
19 *3:1 *3:3 0
20 *3:2 *3:4 0
*END

*D_NET *4 0.00063291299678
*CONN
*P clockd[3] O
*I output43:X O
*CAP
14 *4:1 0.00063291299678
15 output43:X 0
*RES
21 *4:1 *4:2 7.133928571428571
22 output43:X output43:X 0
23 output43:X *4:2 0
*END

*D_NET *5 0.00058176737952
*CONN
*P clockp[0] O
*I output44:X O
*CAP
16 *5:1 0.00018270924762000003
17 *5:3 0.00039905813189999997
18 output44:X 0
19 *5:2 0
*RES
24 *5:1 *5:2 1.9732142857142856
25 *5:3 *5:4 0.6846333333333334
26 output44:X output44:X 0
27 output44:X *5:1 0
28 *5:2 *5:4 0
*END

*D_NET *6 0.00063291299678
*CONN
*P clockp[1] O
*I output45:X O
*CAP
20 *6:1 0.00063291299678
21 output45:X 0
*RES
29 *6:1 *6:2 7.133928571428571
30 output45:X output45:X 0
31 output45:X *6:2 0
*END

*D_NET *7 0.0006858781437400002
*CONN
*P dco I
*I input1:A I
*CAP
22 *7:1 0.0006858781437400002
23 input1:A 0
*RES
32 *7:1 *7:2 7.741071428571428
33 input1:A input1:A 0
34 input1:A *7:2 0
*END

*D_NET *8 0.00087184960772
*CONN
*P div[0] I
*I input2:A I
*CAP
24 *8:1 0.00031512211502
25 *8:3 0.0005567274927
26 input2:A 0
27 *8:2 0
*RES
35 *8:1 *8:2 3.4910714285714284
36 *8:3 *8:4 0.9729000000000001
37 input2:A input2:A 0
38 input2:A *8:1 0
39 *8:2 *8:3 0
*END

*D_NET *9 0.0009451108955000001
*CONN
*P div[1] I
*I input3:A I
*CAP
28 input3:A 0.0002062676048
29 *9:2 0.0007388432907000001
30 *9:1 0
*RES
40 input3:A *9:1 2.0535714285714284
41 *9:2 *9:3 8.348214285714285
42 input3:A input3:A 0
43 *9:1 *9:2 0
*END

*D_NET *10 0.0007388432907000001
*CONN
*P div[2] I
*I input4:A I
*CAP
31 *10:1 0.0007388432907000001
32 input4:A 0
*RES
44 *10:1 *10:2 8.348214285714285
45 input4:A input4:A 0
46 input4:A *10:1 0
*END

*D_NET *11 0.0012724326077000001
*CONN
*P div[3] I
*I input5:A I
*CAP
33 *11:1 0.00040117644959999997
34 *11:2 0.0008712561581000002
35 input5:A 0
*RES
47 *11:1 input5:A 4.107142857142857
48 *11:2 *11:3 9.866071428571429
49 *11:1 *11:3 0
50 input5:A input5:A 0
*END

*D_NET *12 0.0009061291265400001
*CONN
*P div[4] I
*I input6:A I
*CAP
36 *12:1 0.00016728583584
37 *12:2 0.0007388432907000001
38 input6:A 0
*RES
51 *12:1 input6:A 1.6428571428571428
52 *12:2 *12:3 8.348214285714285
53 input6:A input6:A 0
54 *12:1 *12:2 0
*END

*D_NET *13 0.0007891838196600001
*CONN
*P ext_trim[0] I
*I input7:A I
*CAP
39 *13:1 5.034052896000001e-05
40 *13:2 0.0007388432907000001
41 input7:A 0
*RES
55 *13:1 input7:A 0.4107142857142857
56 *13:2 *13:3 8.348214285714285
57 input7:A input7:A 0
58 *13:1 *13:2 0
*END

*D_NET *14 0.0010480728243800002
*CONN
*P ext_trim[10] I
*I input8:A I
*CAP
42 *14:1 0.0006858781437400002
43 *14:3 0.0003621946806399999
44 input8:A 0
*RES
59 *14:1 *14:2 7.741071428571428
60 *14:3 input8:A 3.6964285714285707
61 *14:3 *14:2 0
62 input8:A input8:A 0
*END

*D_NET *15 0.0007388432907000001
*CONN
*P ext_trim[11] I
*I input9:A I
*CAP
45 *15:1 0.0007388432907000001
46 input9:A 0
*RES
63 *15:1 *15:2 8.348214285714285
64 input9:A input9:A 0
65 input9:A *15:1 0
*END

*D_NET *16 0.0006599890198799999
*CONN
*P ext_trim[12] I
*I input10:A I
*CAP
47 *16:1 0.00010326152718000001
48 *16:3 0.0005567274927
49 input10:A 0
*RES
66 *16:1 *16:2 1.0624999999999998
67 *16:3 *16:4 0.9729000000000001
68 input10:A input10:A 0
69 input10:A *16:2 0
70 *16:1 *16:3 0
*END

*D_NET *17 0.0009311275175000002
*CONN
*P ext_trim[13] I
*I input11:A I
*CAP
50 *17:1 0.0006858781437400002
51 *17:3 0.00024524937376
52 input11:A 0
*RES
71 *17:1 *17:2 7.741071428571428
72 *17:3 input11:A 2.464285714285714
73 *17:3 *17:2 0
74 input11:A input11:A 0
*END

*D_NET *18 0.0007752004416600002
*CONN
*P ext_trim[14] I
*I input12:A I
*CAP
53 *18:1 0.0006858781437400002
54 *18:3 8.932229792e-05
55 input12:A 0
*RES
75 *18:1 *18:2 7.741071428571428
76 *18:3 input12:A 0.8214285714285714
77 *18:3 *18:2 0
78 input12:A input12:A 0
*END

*D_NET *19 0.00114279104612
*CONN
*P ext_trim[15] I
*I input13:A I
*CAP
56 *19:1 0.0002062676048
57 *19:2 0.00018270924762000003
58 *19:4 0.0007538141937
59 input13:A 0
*RES
79 *19:1 input13:A 2.0535714285714284
80 *19:2 *19:3 1.9732142857142856
81 *19:4 *19:5 1.3332333333333333
82 input13:A input13:A 0
83 *19:1 *19:3 0
84 *19:2 *19:4 0
*END

*D_NET *20 0.0010768964327000001
*CONN
*P ext_trim[16] I
*I input14:A I
*CAP
60 *20:1 0.00024524937376
61 *20:2 0.00020919182110000001
62 *20:4 0.00062245523784
63 input14:A 0
*RES
85 *20:1 input14:A 2.464285714285714
86 *20:2 *20:3 2.276785714285714
87 *20:4 *20:3 0.8214285714285714
88 *20:4 *20:5 6.07142857142857
89 input14:A input14:A 0
90 *20:1 *20:2 0
*END

*D_NET *21 0.0006747629067200001
*CONN
*P ext_trim[17] I
*I input15:A I
*CAP
64 *21:1 0.0003596407917
65 *21:3 0.00031512211502
66 input15:A 0
*RES
91 *21:1 *21:2 0.6125666666666667
92 *21:3 *21:4 3.4910714285714284
93 *21:3 *21:2 0
94 input15:A input15:A 0
95 input15:A *21:4 0
*END

*D_NET *22 0.00121798327822
*CONN
*P ext_trim[18] I
*I input16:A I
*CAP
67 *22:1 0.0004791399875199999
68 *22:2 0.0007388432907000001
69 input16:A 0
*RES
96 *22:1 input16:A 4.928571428571428
97 *22:2 *22:3 8.348214285714285
98 input16:A input16:A 0
99 *22:1 *22:2 0
*END

*D_NET *23 0.0006335064463999999
*CONN
*P ext_trim[19] I
*I input17:A I
*CAP
70 *23:1 7.67789537e-05
71 *23:3 0.0005567274927
72 input17:A 0
73 *23:2 0
*RES
100 *23:1 *23:2 0.7589285714285713
101 *23:3 *23:4 0.9729000000000001
102 input17:A input17:A 0
103 input17:A *23:1 0
104 *23:2 *23:3 0
*END

*D_NET *24 0.0007388432907000001
*CONN
*P ext_trim[1] I
*I input18:A I
*CAP
74 *24:1 0.0007388432907000001
75 input18:A 0
*RES
105 *24:1 *24:2 8.348214285714285
106 input18:A input18:A 0
107 input18:A *24:1 0
*END

*D_NET *25 0.00115485997062
*CONN
*P ext_trim[20] I
*I input19:A I
*CAP
76 *25:1 0.00020919182110000001
77 *25:3 0.00062245523784
78 *25:5 0.00032321291168
79 input19:A 0
*RES
108 *25:1 *25:2 2.276785714285714
109 *25:3 *25:2 0.8214285714285714
110 *25:3 *25:4 6.07142857142857
111 *25:5 input19:A 3.2857142857142856
112 input19:A input19:A 0
113 *25:5 *25:1 0
*END

*D_NET *26 0.0004364197454
*CONN
*P ext_trim[21] I
*I input20:A I
*CAP
80 *26:1 0.0003596407917
81 *26:3 7.67789537e-05
82 *26:4 0
83 input20:A 0
*RES
114 *26:1 *26:2 0.6125666666666667
115 *26:3 *26:4 0.7589285714285713
116 *26:4 *26:2 0
117 input20:A input20:A 0
118 input20:A *26:3 0
*END

*D_NET *27 0.00117870692962
*CONN
*P ext_trim[22] I
*I input21:A I
*CAP
84 *27:1 0.00065939557026
85 *27:3 0.0005193113593599999
86 *27:4 0
87 input21:A 0
*RES
119 *27:1 *27:2 7.437499999999999
120 *27:3 *27:4 4.928571428571428
121 *27:3 input21:A 0.30357142857142855
122 *27:4 *27:2 0
123 input21:A input21:A 0
*END

*D_NET *28 0.0010042624751199999
*CONN
*P ext_trim[23] I
*I input22:A I
*CAP
88 *28:1 0.0005567274927
89 *28:3 0.00044753498242
90 *28:4 0
91 input22:A 0
*RES
124 *28:1 *28:2 0.9729000000000001
125 *28:3 *28:4 5.008928571428571
126 *28:4 *28:1 0
127 input22:A input22:A 0
128 input22:A *28:3 0
*END

*D_NET *29 0.0015244645673800003
*CONN
*P ext_trim[24] I
*I input23:A I
*CAP
92 *29:1 4.017137184e-05
93 *29:2 0.0010831167459400002
94 *29:4 0.00040117644959999997
95 input23:A 0
*RES
129 *29:1 input23:A 0.30357142857142855
130 *29:2 *29:3 12.294642857142856
131 *29:4 *29:1 4.107142857142857
132 input23:A input23:A 0
133 *29:4 *29:3 0
*END

*D_NET *30 0.0007388432907000001
*CONN
*P ext_trim[25] I
*I input24:A I
*CAP
96 *30:1 0.0007388432907000001
97 input24:A 0
*RES
134 *30:1 *30:2 8.348214285714285
135 input24:A input24:A 0
136 input24:A *30:1 0
*END

*D_NET *31 0.0006858781437400002
*CONN
*P ext_trim[2] I
*I input25:A I
*CAP
98 *31:1 0.0006858781437400002
99 input25:A 0
*RES
137 *31:1 *31:2 7.741071428571428
138 input25:A input25:A 0
139 input25:A *31:2 0
*END

*D_NET *32 0.0006335064463999999
*CONN
*P ext_trim[3] I
*I input26:A I
*CAP
100 *32:1 7.67789537e-05
101 *32:3 0.0005567274927
102 input26:A 0
*RES
140 *32:1 *32:2 0.7589285714285713
141 *32:3 *32:4 0.9729000000000001
142 input26:A input26:A 0
143 input26:A *32:2 0
144 *32:1 *32:3 0
*END

*D_NET *33 0.0013114143766600002
*CONN
*P ext_trim[4] I
*I input27:A I
*CAP
103 input27:A 0.00044015821855999997
104 *33:2 0.0008712561581000002
105 *33:1 0
*RES
145 input27:A *33:1 4.517857142857142
146 *33:2 *33:3 9.866071428571429
147 *33:1 *33:3 0
148 input27:A input27:A 0
*END

*D_NET *34 0.001301686487
*CONN
*P ext_trim[5] I
*I input28:A I
*CAP
106 *34:1 0.0002062676048
107 *34:2 0.00034160468850000003
108 *34:4 0.0007538141937
109 input28:A 0
*RES
149 *34:1 input28:A 2.0535714285714284
150 *34:2 *34:3 3.7946428571428568
151 *34:4 *34:5 1.3332333333333333
152 input28:A input28:A 0
153 *34:1 *34:3 0
154 *34:2 *34:4 0
*END

*D_NET *35 0.00038345459844
*CONN
*P ext_trim[6] I
*I input29:A I
*CAP
110 *35:1 0.0003596407917
111 *35:3 2.3813806740000006e-05
112 *35:4 0
113 input29:A 0
*RES
155 *35:1 *35:2 0.6125666666666667
156 *35:3 *35:4 0.15178571428571427
157 *35:4 *35:2 0
158 input29:A input29:A 0
159 input29:A *35:3 0
*END

*D_NET *36 0.0013349285851000001
*CONN
*P ext_trim[7] I
*I input30:A I
*CAP
114 *36:1 0.0005960852944
115 *36:2 0.0007388432907000001
116 input30:A 0
*RES
160 *36:1 input30:A 6.160714285714286
161 *36:2 *36:3 8.348214285714285
162 input30:A input30:A 0
163 *36:1 *36:2 0
*END

*D_NET *37 0.0004364197454
*CONN
*P ext_trim[8] I
*I input31:A I
*CAP
117 *37:1 0.0003596407917
118 *37:3 7.67789537e-05
119 input31:A 0
*RES
164 *37:1 *37:2 0.6125666666666667
165 *37:3 *37:4 0.7589285714285713
166 *37:3 *37:2 0
167 input31:A input31:A 0
168 input31:A *37:4 0
*END

*D_NET *38 0.00087184960772
*CONN
*P ext_trim[9] I
*I input32:A I
*CAP
120 *38:1 0.00031512211502
121 *38:3 0.0005567274927
122 input32:A 0
*RES
169 *38:1 *38:2 3.4910714285714284
170 *38:3 *38:4 0.9729000000000001
171 input32:A input32:A 0
172 input32:A *38:2 0
173 *38:1 *38:3 0
*END

*D_NET *39 0.00040993717191999997
*CONN
*P extclk_sel I
*I input33:A I
*CAP
123 *39:1 0.0003596407917
124 *39:3 5.029638022e-05
125 *39:4 0
126 input33:A 0
*RES
174 *39:1 *39:2 0.6125666666666667
175 *39:3 *39:4 0.45535714285714285
176 *39:4 *39:2 0
177 input33:A input33:A 0
178 input33:A *39:3 0
*END

*D_NET *40 0.00082816558862
*CONN
*P osc I
*I input34:A I
*CAP
127 *40:1 8.932229792e-05
128 *40:2 0.0007388432907000001
129 input34:A 0
*RES
179 *40:1 input34:A 0.8214285714285714
180 *40:2 *40:3 8.348214285714285
181 input34:A input34:A 0
182 *40:1 *40:2 0
*END

*D_NET *41 0.0007752004416600002
*CONN
*P reset I
*I input35:A I
*CAP
130 *41:1 0.0006858781437400002
131 *41:3 8.932229792e-05
132 input35:A 0
*RES
183 *41:1 *41:2 7.741071428571428
184 *41:3 input35:A 0.8214285714285714
185 *41:3 *41:2 0
186 input35:A input35:A 0
*END

*D_NET *42 0.0008141822106200002
*CONN
*P sel[0] I
*I input36:A I
*CAP
133 *42:1 0.0006858781437400002
134 input36:A 0.00012830406688
135 *42:3 0
*RES
187 *42:1 *42:2 7.741071428571428
188 input36:A *42:3 1.232142857142857
189 *42:3 *42:2 0
190 input36:A input36:A 0
*END

*D_NET *43 0.00098409266446
*CONN
*P sel[1] I
*I input37:A I
*CAP
136 input37:A 0.00024524937376
137 *43:2 0.0007388432907000001
138 *43:1 0
*RES
191 input37:A *43:1 2.464285714285714
192 *43:2 *43:3 8.348214285714285
193 input37:A input37:A 0
194 *43:1 *43:2 0
*END

*D_NET *44 0.0009701092864600002
*CONN
*P sel[2] I
*I input38:A I
*CAP
139 *44:1 0.0006858781437400002
140 *44:3 0.00028423114272
141 input38:A 0
*RES
195 *44:1 *44:2 7.741071428571428
196 *44:3 input38:A 2.875
197 *44:3 *44:2 0
198 input38:A input38:A 0
*END

*D_NET *45 0.0008968256871999999
*CONN
*I _380_:A1 I
*I _292_:B I
*I _290_:X O
*CAP
142 _290_:X 0.00016728583584
143 *45:2 0.00032836340175999997
144 _380_:A1 0.00040117644959999997
145 _292_:B 0
146 *45:1 0
*RES
199 _290_:X *45:1 1.6428571428571428
200 *45:2 *45:3 3.642857142857143
201 _380_:A1 _292_:B 4.107142857142857
202 _292_:B _292_:B 0
203 *45:1 *45:3 0
204 _290_:X _290_:X 0
205 _380_:A1 _380_:A1 0
206 _380_:A1 *45:2 0
*END

*D_NET *46 0.00014036076940000003
*CONN
*I _376_:A0 I
*I _292_:X O
*CAP
147 _292_:X 5.034052896000001e-05
148 *46:1 9.002024044000002e-05
149 _376_:A0 0
*RES
207 _292_:X _292_:X 0.4107142857142857
208 *46:1 *46:2 0.9107142857142857
209 _376_:A0 _376_:A0 0
210 _376_:A0 *46:2 0
211 _292_:X _292_:X 0
212 _292_:X *46:1 0
*END

*D_NET *47 0.00332510329012
*CONN
*I _374_:A0 I
*I _307_:B1 I
*I _299_:Y O
*CAP
150 *47:1 8.932229792e-05
151 *47:2 0.00035484597524
152 *47:4 0.00040117644959999997
153 *47:5 4.017137184e-05
154 _307_:B1 0.00044015821855999997
155 *47:6 0.00199942897696
156 _374_:A0 0
157 _299_:Y 0
*RES
213 *47:1 _299_:Y 0.8214285714285714
214 *47:2 *47:3 3.946428571428571
215 *47:4 *47:5 4.107142857142857
216 *47:5 *47:6 0.30357142857142855
217 _307_:B1 *47:4 4.517857142857142
218 *47:6 _374_:A0 20.94642857142857
219 _374_:A0 _374_:A0 0
220 _299_:Y _299_:Y 0
221 *47:1 *47:2 0
222 *47:4 *47:3 0
223 _307_:B1 _307_:B1 0
*END

*D_NET *48 0.0020245470844000002
*CONN
*I _372_:A0 I
*I _307_:A3 I
*I _304_:B1 I
*I _297_:A I
*I _296_:X O
*CAP
158 *48:1 5.034052896000001e-05
159 *48:2 0.0008050497244000001
160 *48:4 0.0003621946806399999
161 *48:3 0.00024891568132000004
162 *48:6 5.034052896000001e-05
163 *48:7 0.00022243310784000002
164 _304_:B1 8.932229792e-05
165 *48:8 0.00019595053436
166 _307_:A3 0
167 _372_:A0 0
168 _296_:X 0
169 _297_:A 0
170 *48:9 0
*RES
224 *48:1 _307_:A3 0.4107142857142857
225 *48:2 *48:3 9.107142857142856
226 *48:4 _296_:X 3.6964285714285707
227 *48:3 *48:5 2.7321428571428568
228 *48:6 _297_:A 0.4107142857142857
229 *48:7 *48:8 2.4285714285714284
230 _304_:B1 *48:9 0.8214285714285714
231 *48:8 *48:10 2.1249999999999996
232 _307_:A3 _307_:A3 0
233 *48:1 *48:3 0
234 _372_:A0 _372_:A0 0
235 _372_:A0 *48:2 0
236 _296_:X _296_:X 0
237 *48:4 *48:5 0
238 _297_:A _297_:A 0
239 *48:6 *48:7 0
240 _296_:X *48:8 0
241 _304_:B1 _304_:B1 0
242 *48:9 *48:10 0
*END

*D_NET *49 0.00025730607628
*CONN
*I _370_:A0 I
*I _291_:X O
*CAP
171 *49:1 0.00016728583584
172 *49:2 9.002024044000002e-05
173 _370_:A0 0
174 _291_:X 0
*RES
243 *49:1 _370_:A0 1.6428571428571428
244 *49:2 *49:3 0.9107142857142857
245 _370_:A0 _370_:A0 0
246 *49:1 *49:2 0
247 _291_:X _291_:X 0
248 _291_:X *49:3 0
*END

*D_NET *50 0.00334869000788
*CONN
*I _368_:A0 I
*I _302_:Y O
*CAP
175 *50:1 0.00032321291168
176 *50:2 0.0028971730293200003
177 *50:4 0.00012830406688
178 _368_:A0 0
179 _302_:Y 0
*RES
249 *50:1 _368_:A0 3.2857142857142856
250 *50:2 *50:3 33.089285714285715
251 *50:4 _302_:Y 1.232142857142857
252 _368_:A0 _368_:A0 0
253 *50:1 *50:2 0
254 *50:4 *50:3 0
255 _302_:Y _302_:Y 0
*END

*D_NET *51 0.00032440251456
*CONN
*I _366_:A0 I
*I _304_:X O
*CAP
180 *51:1 0.00032440251456
181 _304_:X 0
182 _366_:A0 0
*RES
256 *51:1 _304_:X 2.875
257 *51:1 _366_:A0 0.30357142857142855
258 _304_:X _304_:X 0
259 _366_:A0 _366_:A0 0
*END

*D_NET *52 0.0014282433276000001
*CONN
*I _364_:A0 I
*I _293_:X O
*CAP
183 *52:1 0.00016946796088000002
184 _364_:A0 0.00125877536672
185 _293_:X 0
186 *52:3 0
*RES
260 *52:1 *52:2 1.8214285714285714
261 _364_:A0 *52:3 13.142857142857142
262 _364_:A0 _364_:A0 0
263 _293_:X _293_:X 0
264 _293_:X *52:1 0
265 *52:3 *52:2 0
*END

*D_NET *53 0.0023792733431600003
*CONN
*I _362_:A0 I
*I _305_:X O
*CAP
187 *53:1 0.00030188082828000006
188 *53:3 0.00207739251488
189 _362_:A0 0
190 _305_:X 0
*RES
266 *53:1 *53:2 3.339285714285714
267 *53:3 _305_:X 21.76785714285714
268 *53:3 *53:1 0
269 _362_:A0 _362_:A0 0
270 _362_:A0 *53:2 0
271 _305_:X _305_:X 0
*END

*D_NET *54 0.00106490821148
*CONN
*I _360_:A0 I
*I _303_:X O
*CAP
191 *54:1 0.00019595053436
192 *54:3 0.00086895767712
193 _360_:A0 0
194 _303_:X 0
*RES
272 *54:1 *54:2 2.1249999999999996
273 *54:3 _303_:X 9.035714285714285
274 _360_:A0 _360_:A0 0
275 _360_:A0 *54:1 0
276 *54:3 *54:2 0
277 _303_:X _303_:X 0
*END

*D_NET *55 0.007148406689960002
*CONN
*I _358_:A0 I
*I _301_:Y O
*CAP
195 *55:1 4.017137184e-05
196 *55:2 0.0013367389046400001
197 *55:3 0.0002062676048
198 *55:4 0.0032149639110800004
199 *55:6 0.0023502648976000003
200 _358_:A0 0
201 _301_:Y 0
*RES
278 *55:1 *55:2 0.30357142857142855
279 *55:2 _358_:A0 13.964285714285714
280 *55:3 _301_:Y 2.0535714285714284
281 *55:4 *55:5 36.732142857142854
282 *55:6 *55:1 24.642857142857142
283 _358_:A0 _358_:A0 0
284 _301_:Y _301_:Y 0
285 *55:3 *55:5 0
286 *55:6 *55:4 0
*END

*D_NET *56 0.00165249207576
*CONN
*I _356_:A0 I
*I _306_:X O
*CAP
202 *56:1 0.00165249207576
203 _356_:A0 0
204 _306_:X 0
*RES
287 *56:1 *56:2 18.82142857142857
288 _356_:A0 _356_:A0 0
289 _356_:A0 *56:1 0
290 _306_:X _306_:X 0
291 _306_:X *56:2 0
*END

*D_NET *57 0.00053463100656
*CONN
*I _354_:A0 I
*I _307_:X O
*CAP
205 _354_:A0 0.0002062676048
206 *57:2 0.00032836340175999997
207 *57:1 0
208 _307_:X 0
*RES
292 _354_:A0 *57:1 2.0535714285714284
293 *57:2 *57:3 3.642857142857143
294 _354_:A0 _354_:A0 0
295 *57:1 *57:2 0
296 _307_:X _307_:X 0
297 _307_:X *57:3 0
*END

*D_NET *58 0.0030889791320000003
*CONN
*I _378_:A0 I
*I _303_:B1 I
*I _300_:Y O
*CAP
209 _300_:Y 0.00012830406688
210 *58:2 0.00138766634096
211 *58:4 0.00024524937376
212 *58:5 0.0013277593504
213 *58:1 0
214 _378_:A0 0
215 _303_:B1 0
216 *58:6 0
*RES
298 _300_:Y *58:1 1.232142857142857
299 *58:2 *58:3 15.785714285714285
300 *58:4 _378_:A0 2.464285714285714
301 *58:5 _303_:B1 0.6071428571428571
302 *58:5 *58:6 13.142857142857142
303 _300_:Y _300_:Y 0
304 *58:1 *58:3 0
305 *58:4 *58:2 0
306 _378_:A0 _378_:A0 0
307 _303_:B1 _303_:B1 0
308 *58:6 *58:7 0
*END

*D_NET *59 0.0009723355602400002
*CONN
*I _377_:A0 I
*I _308_:X O
*CAP
217 *59:1 0.0008050497244000001
218 *59:3 0.00016728583584
219 _377_:A0 0
220 _308_:X 0
*RES
309 *59:1 *59:2 9.107142857142856
310 *59:3 _308_:X 1.6428571428571428
311 _377_:A0 _377_:A0 0
312 _377_:A0 *59:1 0
313 *59:3 *59:2 0
314 _308_:X _308_:X 0
*END

*D_NET *60 0.0011927697854
*CONN
*I _380_:A0 I
*I _313_:B I
*I _309_:X O
*CAP
221 *60:1 0.00016946796088000002
222 _309_:X 0.0005181217564799999
223 *60:4 0.0003621946806399999
224 *60:5 0.00014298538739999998
225 _313_:B 0
226 *60:3 0
227 _380_:A0 0
*RES
315 *60:1 *60:2 1.8214285714285714
316 _309_:X *60:3 5.339285714285714
317 *60:4 _380_:A0 3.6964285714285707
318 *60:5 *60:1 1.5178571428571426
319 _313_:B _313_:B 0
320 _313_:B *60:1 0
321 *60:3 *60:2 0
322 _309_:X _309_:X 0
323 _380_:A0 _380_:A0 0
324 *60:4 *60:5 0
*END

*D_NET *61 0.0041147841999200005
*CONN
*I _375_:A0 I
*I _316_:X O
*CAP
228 *61:1 0.00153283735232
229 *61:4 5.034052896000001e-05
230 *61:5 0.0008050497244000001
231 _316_:X 0.00172655659424
232 *61:3 0
233 _375_:A0 0
*RES
325 *61:1 *61:2 0.30357142857142855
326 *61:1 *61:3 15.607142857142856
327 *61:4 _375_:A0 0.4107142857142857
328 *61:5 *61:6 9.107142857142856
329 _316_:X *61:2 18.07142857142857
330 *61:3 *61:6 0
331 _375_:A0 _375_:A0 0
332 *61:4 *61:5 0
333 _316_:X _316_:X 0
*END

*D_NET *62 0.0033118674331599996
*CONN
*I _373_:A0 I
*I _317_:X O
*CAP
234 *62:1 0.00014298538739999998
235 _317_:X 0.0031688820457599996
236 _373_:A0 0
237 *62:3 0
*RES
334 *62:1 *62:2 1.5178571428571426
335 _317_:X *62:3 33.26785714285714
336 _373_:A0 _373_:A0 0
337 _373_:A0 *62:1 0
338 *62:3 *62:2 0
339 _317_:X _317_:X 0
*END

*D_NET *63 0.00061704709204
*CONN
*I _380_:X O
*I _318_:A I
*CAP
238 *63:1 5.034052896000001e-05
239 *63:2 0.00056670656308
240 _318_:A 0
241 _380_:X 0
*RES
340 *63:1 _380_:X 0.4107142857142857
341 *63:2 *63:3 6.374999999999999
342 _318_:A _318_:A 0
343 _318_:A *63:3 0
344 _380_:X _380_:X 0
345 *63:1 *63:2 0
*END

*D_NET *64 0.00016684334288000002
*CONN
*I _371_:A0 I
*I _318_:X O
*CAP
242 *64:1 0.00011650281392
243 _371_:A0 5.034052896000001e-05
244 *64:3 0
245 _318_:X 0
*RES
346 *64:1 *64:2 1.2142857142857142
347 _371_:A0 *64:3 0.4107142857142857
348 *64:3 *64:1 0
349 _318_:X _318_:X 0
350 _318_:X *64:2 0
351 _371_:A0 _371_:A0 0
*END

*D_NET *65 0.0030463666866400005
*CONN
*I _369_:A0 I
*I _319_:X O
*CAP
246 _369_:A0 5.034052896000001e-05
247 *65:2 0.00271179501496
248 _319_:X 0.00028423114272
249 *65:1 0
250 *65:4 0
*RES
352 _369_:A0 *65:1 0.4107142857142857
353 *65:2 *65:3 30.96428571428571
354 _319_:X *65:4 2.875
355 _369_:A0 _369_:A0 0
356 *65:1 *65:2 0
357 *65:4 *65:3 0
358 _319_:X _319_:X 0
*END

*D_NET *66 0.0034200528952000007
*CONN
*I _367_:A0 I
*I _319_:B1 I
*I _317_:B1 I
*I _312_:B1 I
*I _310_:Y O
*CAP
251 _310_:Y 0.00016728583584
252 _319_:B1 4.017137184e-05
253 _367_:A0 0.00071303060128
254 _312_:B1 4.017137184e-05
255 *66:2 0.00071303060128
256 _317_:B1 9.779659552000001e-05
257 *66:5 0.00067404883232
258 *66:6 0.0006726368570000002
259 *66:7 0.00030188082828000006
260 *66:1 0
261 *66:9 0
*RES
359 _310_:Y *66:1 1.6428571428571428
360 _319_:B1 *66:2 0.30357142857142855
361 _367_:A0 *66:2 7.3928571428571415
362 _312_:B1 *66:3 0.30357142857142855
363 *66:2 *66:3 7.3928571428571415
364 _317_:B1 *66:4 0.9107142857142857
365 *66:5 *66:4 6.982142857142857
366 *66:6 *66:7 7.5892857142857135
367 *66:7 *66:8 3.339285714285714
368 *66:1 *66:8 0
369 _310_:Y _310_:Y 0
370 _319_:B1 _319_:B1 0
371 _367_:A0 _367_:A0 0
372 _312_:B1 _312_:B1 0
373 _317_:B1 _317_:B1 0
374 *66:5 *66:7 0
375 *66:9 *66:6 0
*END

*D_NET *67 0.0016349268866400002
*CONN
*I _365_:A0 I
*I _318_:B I
*I _313_:Y O
*CAP
262 _313_:Y 0.00055710352544
263 *67:2 0.00035484597524
264 _365_:A0 5.034052896000001e-05
265 *67:5 0.0006726368570000002
266 *67:1 0
267 _318_:B 0
268 *67:7 0
269 *67:4 0
*RES
376 _313_:Y *67:1 5.75
377 *67:2 *67:3 3.946428571428571
378 _365_:A0 *67:4 0.4107142857142857
379 *67:5 *67:6 7.5892857142857135
380 _313_:Y _313_:Y 0
381 *67:1 *67:2 0
382 _318_:B _318_:B 0
383 _318_:B *67:3 0
384 *67:7 *67:6 0
385 *67:4 *67:5 0
386 _365_:A0 _365_:A0 0
*END

*D_NET *68 0.0005096326155999999
*CONN
*I _363_:A0 I
*I _320_:X O
*CAP
270 *68:1 0.00038132854871999994
271 _363_:A0 0.00012830406688
272 _320_:X 0
273 *68:3 0
*RES
387 *68:1 *68:2 4.249999999999999
388 _363_:A0 *68:3 1.232142857142857
389 _320_:X _320_:X 0
390 _320_:X *68:1 0
391 *68:3 *68:2 0
392 _363_:A0 _363_:A0 0
*END
