*SPEF "IEEE 1481-1998"
*DESIGN "digital_pll"
*DATE "Thu Apr 29 05:18:19 2021"
*VENDOR "AUC CSCE Department"
*PROGRAM "SPEF Extractor"
*VERSION "1.0"
*DESIGN_FLOW "PIN_CAP NONE"
*DIVIDER /
*DELIMITER :
*BUS_DELIMITER []
*T_UNIT 1.00000 NS
*C_UNIT 1.00000 PF
*R_UNIT 1.00000 OHM
*L_UNIT 1.00000 HENRY


*NAME_MAP
*0 clockc
*1 clockd[0]
*2 clockd[1]
*3 clockd[2]
*4 clockd[3]
*5 clockp[0]
*6 clockp[1]
*7 dco
*8 div[0]
*9 div[1]
*10 div[2]
*11 div[3]
*12 div[4]
*13 ext_trim[0]
*14 ext_trim[10]
*15 ext_trim[11]
*16 ext_trim[12]
*17 ext_trim[13]
*18 ext_trim[14]
*19 ext_trim[15]
*20 ext_trim[16]
*21 ext_trim[17]
*22 ext_trim[18]
*23 ext_trim[19]
*24 ext_trim[1]
*25 ext_trim[20]
*26 ext_trim[21]
*27 ext_trim[22]
*28 ext_trim[23]
*29 ext_trim[24]
*30 ext_trim[25]
*31 ext_trim[2]
*32 ext_trim[3]
*33 ext_trim[4]
*34 ext_trim[5]
*35 ext_trim[6]
*36 ext_trim[7]
*37 ext_trim[8]
*38 ext_trim[9]
*39 extclk_sel
*40 osc
*41 reset
*42 sel[0]
*43 sel[1]
*44 sel[2]
*45 _000_
*46 _001_
*47 _002_
*48 _003_
*49 _004_
*50 _005_
*51 _006_
*52 _007_
*53 _008_
*54 _009_
*55 _010_
*56 _011_
*57 _012_
*58 _013_
*59 _014_
*60 _015_
*61 _016_
*62 _017_
*63 _018_
*64 _019_
*65 _020_
*66 _021_
*67 _022_
*68 _023_
*69 _024_
*70 _025_
*71 _026_
*72 _027_
*73 _028_
*74 _029_
*75 _030_
*76 _031_
*77 _032_
*78 _033_
*79 _034_
*80 _035_
*81 _036_
*82 _037_
*83 _038_
*84 _039_
*85 _040_
*86 _041_
*87 _042_
*88 _043_
*89 _044_
*90 _045_
*91 _046_
*92 _047_
*93 _048_
*94 _049_
*95 _050_
*96 _051_
*97 _052_
*98 _053_
*99 _054_
*100 _055_
*101 _056_
*102 _057_
*103 _058_
*104 _059_
*105 _060_
*106 _061_
*107 _062_
*108 _063_
*109 _064_
*110 _065_
*111 _066_
*112 _067_
*113 _068_
*114 _069_
*115 _070_
*116 _071_
*117 _072_
*118 _073_
*119 _074_
*120 _075_
*121 _076_
*122 _077_
*123 _078_
*124 _079_
*125 _080_
*126 _081_
*127 _082_
*128 _083_
*129 _084_
*130 _085_
*131 _086_
*132 _087_
*133 _088_
*134 _089_
*135 _090_
*136 _091_
*137 _092_
*138 _093_
*139 _094_
*140 _095_
*141 _096_
*142 _097_
*143 _098_
*144 _099_
*145 _100_
*146 _101_
*147 _102_
*148 _103_
*149 _104_
*150 _105_
*151 _106_
*152 _107_
*153 _108_
*154 _109_
*155 _110_
*156 _111_
*157 _112_
*158 _113_
*159 _114_
*160 _115_
*161 _116_
*162 _117_
*163 _118_
*164 _119_
*165 _120_
*166 _121_
*167 _122_
*168 _123_
*169 _124_
*170 _125_
*171 _126_
*172 _127_
*173 _128_
*174 _129_
*175 _130_
*176 _131_
*177 _132_
*178 _133_
*179 _134_
*180 _135_
*181 _136_
*182 _137_
*183 _138_
*184 _139_
*185 _140_
*186 _141_
*187 _142_
*188 _143_
*189 _144_
*190 _145_
*191 _146_
*192 _147_
*193 _148_
*194 _149_
*195 _150_
*196 _151_
*197 _152_
*198 _153_
*199 _154_
*200 _155_
*201 _156_
*202 _157_
*203 _158_
*204 _159_
*205 _160_
*206 _161_
*207 _162_
*208 _163_
*209 _164_
*210 _165_
*211 _166_
*212 _167_
*213 _168_
*214 _169_
*215 _170_
*216 _171_
*217 _172_
*218 _173_
*219 _174_
*220 _175_
*221 nint\[0\]
*222 nint\[1\]
*223 nint\[2\]
*224 nint\[3\]
*225 pll_control.clock
*226 pll_control.count0\[0\]
*227 pll_control.count0\[1\]
*228 pll_control.count0\[2\]
*229 pll_control.count0\[3\]
*230 pll_control.count0\[4\]
*231 pll_control.count1\[0\]
*232 pll_control.count1\[1\]
*233 pll_control.count1\[2\]
*234 pll_control.count1\[3\]
*235 pll_control.count1\[4\]
*236 pll_control.oscbuf\[0\]
*237 pll_control.oscbuf\[1\]
*238 pll_control.oscbuf\[2\]
*239 pll_control.prep\[0\]
*240 pll_control.prep\[1\]
*241 pll_control.prep\[2\]
*242 pll_control.tint\[0\]
*243 pll_control.tint\[1\]
*244 pll_control.tint\[2\]
*245 pll_control.tint\[3\]
*246 pll_control.tint\[4\]
*247 pll_control.tval\[0\]
*248 pll_control.tval\[1\]
*249 resetb
*250 ringosc.c\[0\]
*251 ringosc.c\[1\]
*252 ringosc.dstage\[0\].id.d0
*253 ringosc.dstage\[0\].id.d1
*254 ringosc.dstage\[0\].id.d2
*255 ringosc.dstage\[0\].id.in
*256 ringosc.dstage\[0\].id.out
*257 ringosc.dstage\[0\].id.trim\[0\]
*258 ringosc.dstage\[0\].id.trim\[1\]
*259 ringosc.dstage\[0\].id.ts
*260 ringosc.dstage\[10\].id.d0
*261 ringosc.dstage\[10\].id.d1
*262 ringosc.dstage\[10\].id.d2
*263 ringosc.dstage\[10\].id.in
*264 ringosc.dstage\[10\].id.out
*265 ringosc.dstage\[10\].id.trim\[0\]
*266 ringosc.dstage\[10\].id.trim\[1\]
*267 ringosc.dstage\[10\].id.ts
*268 ringosc.dstage\[11\].id.d0
*269 ringosc.dstage\[11\].id.d1
*270 ringosc.dstage\[11\].id.d2
*271 ringosc.dstage\[11\].id.out
*272 ringosc.dstage\[11\].id.trim\[0\]
*273 ringosc.dstage\[11\].id.trim\[1\]
*274 ringosc.dstage\[11\].id.ts
*275 ringosc.dstage\[1\].id.d0
*276 ringosc.dstage\[1\].id.d1
*277 ringosc.dstage\[1\].id.d2
*278 ringosc.dstage\[1\].id.out
*279 ringosc.dstage\[1\].id.trim\[0\]
*280 ringosc.dstage\[1\].id.trim\[1\]
*281 ringosc.dstage\[1\].id.ts
*282 ringosc.dstage\[2\].id.d0
*283 ringosc.dstage\[2\].id.d1
*284 ringosc.dstage\[2\].id.d2
*285 ringosc.dstage\[2\].id.out
*286 ringosc.dstage\[2\].id.trim\[0\]
*287 ringosc.dstage\[2\].id.trim\[1\]
*288 ringosc.dstage\[2\].id.ts
*289 ringosc.dstage\[3\].id.d0
*290 ringosc.dstage\[3\].id.d1
*291 ringosc.dstage\[3\].id.d2
*292 ringosc.dstage\[3\].id.out
*293 ringosc.dstage\[3\].id.trim\[0\]
*294 ringosc.dstage\[3\].id.trim\[1\]
*295 ringosc.dstage\[3\].id.ts
*296 ringosc.dstage\[4\].id.d0
*297 ringosc.dstage\[4\].id.d1
*298 ringosc.dstage\[4\].id.d2
*299 ringosc.dstage\[4\].id.out
*300 ringosc.dstage\[4\].id.trim\[0\]
*301 ringosc.dstage\[4\].id.trim\[1\]
*302 ringosc.dstage\[4\].id.ts
*303 ringosc.dstage\[5\].id.d0
*304 ringosc.dstage\[5\].id.d1
*305 ringosc.dstage\[5\].id.d2
*306 ringosc.dstage\[5\].id.out
*307 ringosc.dstage\[5\].id.trim\[0\]
*308 ringosc.dstage\[5\].id.trim\[1\]
*309 ringosc.dstage\[5\].id.ts
*310 ringosc.dstage\[6\].id.d0
*311 ringosc.dstage\[6\].id.d1
*312 ringosc.dstage\[6\].id.d2
*313 ringosc.dstage\[6\].id.out
*314 ringosc.dstage\[6\].id.trim\[0\]
*315 ringosc.dstage\[6\].id.trim\[1\]
*316 ringosc.dstage\[6\].id.ts
*317 ringosc.dstage\[7\].id.d0
*318 ringosc.dstage\[7\].id.d1
*319 ringosc.dstage\[7\].id.d2
*320 ringosc.dstage\[7\].id.out
*321 ringosc.dstage\[7\].id.trim\[0\]
*322 ringosc.dstage\[7\].id.trim\[1\]
*323 ringosc.dstage\[7\].id.ts
*324 ringosc.dstage\[8\].id.d0
*325 ringosc.dstage\[8\].id.d1
*326 ringosc.dstage\[8\].id.d2
*327 ringosc.dstage\[8\].id.out
*328 ringosc.dstage\[8\].id.trim\[0\]
*329 ringosc.dstage\[8\].id.trim\[1\]
*330 ringosc.dstage\[8\].id.ts
*331 ringosc.dstage\[9\].id.d0
*332 ringosc.dstage\[9\].id.d1
*333 ringosc.dstage\[9\].id.d2
*334 ringosc.dstage\[9\].id.trim\[0\]
*335 ringosc.dstage\[9\].id.trim\[1\]
*336 ringosc.dstage\[9\].id.ts
*337 ringosc.iss.ctrl0
*338 ringosc.iss.d0
*339 ringosc.iss.d1
*340 ringosc.iss.d2
*341 ringosc.iss.one
*342 ringosc.iss.reset
*343 ringosc.iss.trim\[0\]
*344 ringosc.iss.trim\[1\]
*345 net1
*346 net2
*347 net3
*348 net4
*349 net5
*350 net6
*351 net7
*352 net8
*353 net9
*354 net10
*355 net11
*356 net12
*357 net13
*358 net14
*359 net15
*360 net16
*361 net17
*362 net18
*363 net19
*364 net20
*365 net21
*366 net22
*367 net23
*368 net24
*369 net25
*370 net26
*371 net27
*372 net28
*373 net29
*374 net30
*375 net31
*376 net32
*377 net33
*378 net34
*379 net35
*380 net36
*381 net37
*382 net38
*383 net39
*384 net40
*385 net41
*386 net42
*387 net43
*388 net44
*389 net45
*390 net46

*D_NET *0 0.00038345459844
*CONN
*P clockc O
*I output39:X O
*CAP
0 *0:1 0.0003596407917
1 *0:3 2.3813806740000006e-05
2 *0:4 0
3 output39:X 0
*RES
0 *0:1 *0:2 0.6125666666666667
1 *0:3 *0:4 0.15178571428571427
2 *0:4 *0:2 0
3 output39:X output39:X 0
4 output39:X *0:3 0
*END

*D_NET *1 0.00058176737952
*CONN
*P clockd[0] O
*I output40:X O
*CAP
4 *1:1 0.00039905813189999997
5 *1:3 0.00018270924762000003
6 output40:X 0
*RES
5 *1:1 *1:2 0.6846333333333334
6 *1:3 *1:4 1.9732142857142856
7 *1:3 *1:2 0
8 output40:X output40:X 0
9 output40:X *1:4 0
*END

*D_NET *2 0.00042287193864
*CONN
*P clockd[1] O
*I output41:X O
*CAP
7 *2:1 2.3813806740000006e-05
8 *2:3 0.00039905813189999997
9 output41:X 0
10 *2:2 0
*RES
10 *2:1 *2:2 0.15178571428571427
11 *2:3 *2:4 0.6846333333333334
12 output41:X output41:X 0
13 output41:X *2:1 0
14 *2:2 *2:4 0
*END

*D_NET *3 0.00042348497868
*CONN
*P clockd[2] O
*I output42:X O
*CAP
11 *3:1 0.00010326152718000001
12 *3:3 0.0003202234515
13 output42:X 0
*RES
15 *3:1 *3:2 1.0624999999999998
16 *3:3 *3:4 0.5405000000000001
17 output42:X output42:X 0
18 output42:X *3:2 0
19 *3:1 *3:3 0
*END

*D_NET *4 0.00063291299678
*CONN
*P clockd[3] O
*I output43:X O
*CAP
14 *4:1 0.00063291299678
15 output43:X 0
*RES
20 *4:1 *4:2 7.133928571428571
21 output43:X output43:X 0
22 output43:X *4:2 0
*END

*D_NET *5 0.00058176737952
*CONN
*P clockp[0] O
*I output44:X O
*CAP
16 *5:1 0.00018270924762000003
17 *5:3 0.00039905813189999997
18 output44:X 0
19 *5:2 0
*RES
23 *5:1 *5:2 1.9732142857142856
24 *5:3 *5:4 0.6846333333333334
25 output44:X output44:X 0
26 output44:X *5:1 0
27 *5:2 *5:4 0
*END

*D_NET *6 0.00063291299678
*CONN
*P clockp[1] O
*I output45:X O
*CAP
20 *6:1 0.00063291299678
21 output45:X 0
*RES
28 *6:1 *6:2 7.133928571428571
29 output45:X output45:X 0
30 output45:X *6:2 0
*END

*D_NET *7 0.00106176162274
*CONN
*P dco I
*I input1:A I
*CAP
22 *7:1 0.00065939557026
23 *7:3 0.0003621946806399999
24 *7:4 4.017137184e-05
25 input1:A 0
*RES
31 *7:1 *7:2 7.437499999999999
32 *7:3 *7:4 3.6964285714285707
33 *7:4 input1:A 0.30357142857142855
34 *7:3 *7:2 0
35 input1:A input1:A 0
*END

*D_NET *8 0.0003970024052
*CONN
*P div[0] I
*I input2:A I
*CAP
26 *8:1 7.67789537e-05
27 *8:3 0.0003202234515
28 input2:A 0
*RES
36 *8:1 *8:2 0.7589285714285713
37 *8:3 *8:4 0.5405000000000001
38 input2:A input2:A 0
39 input2:A *8:2 0
40 *8:1 *8:3 0
*END

*D_NET *9 0.00074871786818
*CONN
*P div[1] I
*I input3:A I
*CAP
29 *9:1 8.932229792e-05
30 *9:2 0.00065939557026
31 input3:A 0
*RES
41 *9:1 input3:A 0.8214285714285714
42 *9:2 *9:3 7.437499999999999
43 input3:A input3:A 0
44 *9:1 *9:2 0
*END

*D_NET *10 0.0007733443785
*CONN
*P div[2] I
*I input4:A I
*CAP
32 *10:1 2.3813806740000006e-05
33 *10:3 0.00021586984500000003
34 *10:4 4.640188412000001e-05
35 *10:5 0.00048725884264
36 input4:A 0
*RES
45 *10:1 *10:2 0.15178571428571427
46 *10:3 *10:2 0.4107142857142857
47 *10:3 *10:4 1.8214285714285714
48 *10:4 *10:5 0.4107142857142857
49 *10:5 *10:6 5.4642857142857135
50 input4:A input4:A 0
51 input4:A *10:1 0
*END

*D_NET *11 0.00108705459334
*CONN
*P div[3] I
*I input5:A I
*CAP
37 *11:1 0.0006858781437400002
38 *11:3 0.00040117644959999997
39 input5:A 0
*RES
52 *11:1 *11:2 7.741071428571428
53 *11:3 input5:A 4.107142857142857
54 *11:3 *11:2 0
55 input5:A input5:A 0
*END

*D_NET *12 0.0008446740412600001
*CONN
*P div[4] I
*I input6:A I
*CAP
40 *12:1 0.00012830406688
41 *12:2 0.00018270924762000003
42 *12:3 4.640188412000001e-05
43 *12:4 0.00048725884264
44 input6:A 0
*RES
56 *12:1 input6:A 1.232142857142857
57 *12:2 *12:3 1.9732142857142856
58 *12:3 *12:4 0.4107142857142857
59 *12:4 *12:5 5.4642857142857135
60 input6:A input6:A 0
61 *12:1 *12:2 0
*END

*D_NET *13 0.00086566317506
*CONN
*P ext_trim[0] I
*I input7:A I
*CAP
45 *13:1 0.0002062676048
46 *13:2 0.00065939557026
47 input7:A 0
*RES
62 *13:1 input7:A 2.0535714285714284
63 *13:2 *13:3 7.437499999999999
64 input7:A input7:A 0
65 *13:1 *13:2 0
*END

*D_NET *14 0.0009837980848200001
*CONN
*P ext_trim[10] I
*I input8:A I
*CAP
48 *14:1 0.00065939557026
49 *14:3 0.00028423114272
50 *14:4 4.017137184e-05
51 input8:A 0
*RES
66 *14:1 *14:2 7.437499999999999
67 *14:3 *14:4 2.875
68 *14:4 input8:A 0.30357142857142855
69 *14:3 *14:2 0
70 input8:A input8:A 0
*END

*D_NET *15 0.00065939557026
*CONN
*P ext_trim[11] I
*I input9:A I
*CAP
52 *15:1 0.00065939557026
53 input9:A 0
*RES
71 *15:1 *15:2 7.437499999999999
72 input9:A input9:A 0
73 input9:A *15:1 0
*END

*D_NET *16 0.0003970024052
*CONN
*P ext_trim[12] I
*I input10:A I
*CAP
54 *16:1 7.67789537e-05
55 *16:3 0.0003202234515
56 input10:A 0
57 *16:2 0
*RES
74 *16:1 *16:2 0.7589285714285713
75 *16:3 *16:4 0.5405000000000001
76 input10:A input10:A 0
77 input10:A *16:1 0
78 *16:2 *16:3 0
*END

*D_NET *17 0.0006858781437400002
*CONN
*P ext_trim[13] I
*I input11:A I
*CAP
58 *17:1 0.0006858781437400002
59 input11:A 0
*RES
79 *17:1 *17:2 7.741071428571428
80 input11:A input11:A 0
81 input11:A *17:2 0
*END

*D_NET *18 0.0007752004416600002
*CONN
*P ext_trim[14] I
*I input12:A I
*CAP
60 *18:1 0.0006858781437400002
61 *18:3 8.932229792e-05
62 input12:A 0
*RES
82 *18:1 *18:2 7.741071428571428
83 *18:3 input12:A 0.8214285714285714
84 *18:3 *18:2 0
85 input12:A input12:A 0
*END

*D_NET *19 0.0003970024052
*CONN
*P ext_trim[15] I
*I input13:A I
*CAP
63 *19:1 7.67789537e-05
64 *19:3 0.0003202234515
65 input13:A 0
66 *19:2 0
*RES
86 *19:1 *19:2 0.7589285714285713
87 *19:3 *19:4 0.5405000000000001
88 input13:A input13:A 0
89 input13:A *19:1 0
90 *19:2 *19:3 0
*END

*D_NET *20 0.00074871786818
*CONN
*P ext_trim[16] I
*I input14:A I
*CAP
67 *20:1 8.932229792e-05
68 *20:2 0.00065939557026
69 input14:A 0
*RES
91 *20:1 input14:A 0.8214285714285714
92 *20:2 *20:3 7.437499999999999
93 input14:A input14:A 0
94 *20:1 *20:2 0
*END

*D_NET *21 0.0004364197454
*CONN
*P ext_trim[17] I
*I input15:A I
*CAP
70 *21:1 0.0003596407917
71 *21:3 7.67789537e-05
72 input15:A 0
*RES
95 *21:1 *21:2 0.6125666666666667
96 *21:3 *21:4 0.7589285714285713
97 *21:3 *21:2 0
98 input15:A input15:A 0
99 input15:A *21:4 0
*END

*D_NET *22 0.00065939557026
*CONN
*P ext_trim[18] I
*I input16:A I
*CAP
73 *22:1 0.00065939557026
74 input16:A 0
*RES
100 *22:1 *22:2 7.437499999999999
101 input16:A input16:A 0
102 input16:A *22:1 0
*END

*D_NET *23 0.00037051983172
*CONN
*P ext_trim[19] I
*I input17:A I
*CAP
75 *23:1 5.029638022e-05
76 *23:3 0.0003202234515
77 input17:A 0
78 *23:2 0
*RES
103 *23:1 *23:2 0.45535714285714285
104 *23:3 *23:4 0.5405000000000001
105 input17:A input17:A 0
106 input17:A *23:1 0
107 *23:2 *23:3 0
*END

*D_NET *24 0.00074871786818
*CONN
*P ext_trim[1] I
*I input18:A I
*CAP
79 *24:1 8.932229792e-05
80 *24:2 0.00065939557026
81 input18:A 0
*RES
108 *24:1 input18:A 0.8214285714285714
109 *24:2 *24:3 7.437499999999999
110 input18:A input18:A 0
111 *24:1 *24:2 0
*END

*D_NET *25 0.00074871786818
*CONN
*P ext_trim[20] I
*I input19:A I
*CAP
82 *25:1 8.932229792e-05
83 *25:2 0.00065939557026
84 input19:A 0
*RES
112 *25:1 input19:A 0.8214285714285714
113 *25:2 *25:3 7.437499999999999
114 input19:A input19:A 0
115 *25:1 *25:2 0
*END

*D_NET *26 0.0004364197454
*CONN
*P ext_trim[21] I
*I input20:A I
*CAP
85 *26:1 0.0003596407917
86 *26:3 7.67789537e-05
87 input20:A 0
*RES
116 *26:1 *26:2 0.6125666666666667
117 *26:3 *26:4 0.7589285714285713
118 *26:3 *26:2 0
119 input20:A input20:A 0
120 input20:A *26:4 0
*END

*D_NET *27 0.0006858781437400002
*CONN
*P ext_trim[22] I
*I input21:A I
*CAP
88 *27:1 0.0006858781437400002
89 input21:A 0
*RES
121 *27:1 *27:2 7.741071428571428
122 input21:A input21:A 0
123 input21:A *27:2 0
*END

*D_NET *28 0.00071356720688
*CONN
*P ext_trim[23] I
*I input22:A I
*CAP
90 *28:1 0.00023567439458000006
91 *28:3 0.0004778928123
92 input22:A 0
93 *28:2 0
*RES
124 *28:1 *28:2 2.580357142857143
125 *28:3 *28:4 0.8287666666666667
126 input22:A input22:A 0
127 input22:A *28:1 0
128 *28:2 *28:3 0
*END

*D_NET *29 0.0007752004416600002
*CONN
*P ext_trim[24] I
*I input23:A I
*CAP
94 *29:1 0.0006858781437400002
95 *29:3 8.932229792e-05
96 input23:A 0
*RES
129 *29:1 *29:2 7.741071428571428
130 *29:3 input23:A 0.8214285714285714
131 *29:3 *29:2 0
132 input23:A input23:A 0
*END

*D_NET *30 0.00065939557026
*CONN
*P ext_trim[25] I
*I input24:A I
*CAP
97 *30:1 0.00065939557026
98 input24:A 0
*RES
133 *30:1 *30:2 7.437499999999999
134 input24:A input24:A 0
135 input24:A *30:1 0
*END

*D_NET *31 0.0006858781437400002
*CONN
*P ext_trim[2] I
*I input25:A I
*CAP
99 *31:1 0.0006858781437400002
100 input25:A 0
*RES
136 *31:1 *31:2 7.741071428571428
137 input25:A input25:A 0
138 input25:A *31:2 0
*END

*D_NET *32 0.00034403725824
*CONN
*P ext_trim[3] I
*I input26:A I
*CAP
101 *32:1 2.3813806740000006e-05
102 *32:3 0.0003202234515
103 input26:A 0
104 *32:2 0
*RES
139 *32:1 *32:2 0.15178571428571427
140 *32:3 *32:4 0.5405000000000001
141 input26:A input26:A 0
142 input26:A *32:1 0
143 *32:2 *32:3 0
*END

*D_NET *33 0.0010823868710400002
*CONN
*P ext_trim[4] I
*I input27:A I
*CAP
105 input27:A 0.0002062676048
106 *33:2 0.0004908255476800001
107 *33:3 0.00026215696806
108 *33:5 0.0001231367505
109 *33:1 0
*RES
144 input27:A *33:1 2.0535714285714284
145 *33:2 *33:1 390.3999999999999
146 *33:3 *33:4 2.883928571428571
147 *33:5 *33:6 0.18016666666666664
148 input27:A input27:A 0
149 *33:1 *33:1 0
150 *33:2 *33:2 0
151 *33:2 *33:4 0
152 *33:3 *33:5 0
*END

*D_NET *34 0.00034403725824
*CONN
*P ext_trim[5] I
*I input28:A I
*CAP
110 *34:1 2.3813806740000006e-05
111 *34:3 0.0003202234515
112 input28:A 0
*RES
153 *34:1 *34:2 0.15178571428571427
154 *34:3 *34:4 0.5405000000000001
155 input28:A input28:A 0
156 input28:A *34:2 0
157 *34:1 *34:3 0
*END

*D_NET *35 0.0004364197454
*CONN
*P ext_trim[6] I
*I input29:A I
*CAP
113 *35:1 0.0003596407917
114 *35:3 7.67789537e-05
115 *35:4 0
116 input29:A 0
*RES
158 *35:1 *35:2 0.6125666666666667
159 *35:3 *35:4 0.7589285714285713
160 *35:4 *35:2 0
161 input29:A input29:A 0
162 input29:A *35:3 0
*END

*D_NET *36 0.00103527904926
*CONN
*P ext_trim[7] I
*I input30:A I
*CAP
117 input30:A 4.017137184e-05
118 *36:2 0.0003621946806399999
119 *36:3 0.00063291299678
*RES
163 input30:A *36:1 0.30357142857142855
164 *36:2 *36:1 3.6964285714285707
165 *36:3 *36:4 7.133928571428571
166 input30:A input30:A 0
167 *36:2 *36:3 0
*END

*D_NET *37 0.00038345459844
*CONN
*P ext_trim[8] I
*I input31:A I
*CAP
120 *37:1 0.0003596407917
121 *37:3 2.3813806740000006e-05
122 *37:4 0
123 input31:A 0
*RES
168 *37:1 *37:2 0.6125666666666667
169 *37:3 *37:4 0.15178571428571427
170 *37:4 *37:2 0
171 input31:A input31:A 0
172 input31:A *37:3 0
*END

*D_NET *38 0.0003970024052
*CONN
*P ext_trim[9] I
*I input32:A I
*CAP
124 *38:1 7.67789537e-05
125 *38:3 0.0003202234515
126 input32:A 0
*RES
173 *38:1 *38:2 0.7589285714285713
174 *38:3 *38:4 0.5405000000000001
175 input32:A input32:A 0
176 input32:A *38:2 0
177 *38:1 *38:3 0
*END

*D_NET *39 0.00038345459844
*CONN
*P extclk_sel I
*I input33:A I
*CAP
127 *39:1 0.0003596407917
128 *39:3 2.3813806740000006e-05
129 *39:4 0
130 input33:A 0
*RES
178 *39:1 *39:2 0.6125666666666667
179 *39:3 *39:4 0.15178571428571427
180 *39:4 *39:2 0
181 input33:A input33:A 0
182 input33:A *39:3 0
*END

*D_NET *40 0.00074871786818
*CONN
*P osc I
*I input34:A I
*CAP
131 *40:1 8.932229792e-05
132 *40:2 0.00065939557026
133 input34:A 0
*RES
183 *40:1 input34:A 0.8214285714285714
184 *40:2 *40:3 7.437499999999999
185 input34:A input34:A 0
186 *40:1 *40:2 0
*END

*D_NET *41 0.0007752004416600002
*CONN
*P reset I
*I input35:A I
*CAP
134 *41:1 0.0006858781437400002
135 *41:3 8.932229792e-05
136 input35:A 0
*RES
187 *41:1 *41:2 7.741071428571428
188 *41:3 input35:A 0.8214285714285714
189 *41:3 *41:2 0
190 input35:A input35:A 0
*END

*D_NET *42 0.00108705459334
*CONN
*P sel[0] I
*I input36:A I
*CAP
137 *42:1 0.0006858781437400002
138 *42:3 0.00040117644959999997
139 input36:A 0
*RES
191 *42:1 *42:2 7.741071428571428
192 *42:3 input36:A 4.107142857142857
193 *42:3 *42:2 0
194 input36:A input36:A 0
*END

*D_NET *43 0.00076121706366
*CONN
*P sel[1] I
*I input37:A I
*CAP
140 input37:A 0.00012830406688
141 *43:2 0.00063291299678
142 *43:1 0
*RES
195 input37:A *43:1 1.232142857142857
196 *43:2 *43:3 7.133928571428571
197 input37:A input37:A 0
198 *43:1 *43:2 0
*END

*D_NET *44 0.0008406647841000001
*CONN
*P sel[2] I
*I input38:A I
*CAP
143 *44:1 0.0007123607172200001
144 *44:3 0.00012830406688
145 input38:A 0
*RES
199 *44:1 *44:2 8.044642857142856
200 *44:3 input38:A 1.232142857142857
201 *44:3 *44:2 0
202 input38:A input38:A 0
*END

*D_NET *45 0.000945387454
*CONN
*I _380_:A1 I
*I _292_:B I
*I _290_:X O
*CAP
146 *45:1 0.00016946796088000002
147 _290_:X 0.00012830406688
148 *45:4 0.00024643897664
149 _380_:A1 0.00040117644959999997
150 _292_:B 0
151 *45:3 0
*RES
203 *45:1 *45:2 1.8214285714285714
204 _290_:X *45:3 1.232142857142857
205 *45:4 *45:5 0.30357142857142855
206 _380_:A1 *45:5 4.107142857142857
207 *45:4 _292_:B 2.0535714285714284
208 _292_:B _292_:B 0
209 _380_:A1 _380_:A1 0
210 _380_:A1 *45:1 0
211 *45:3 *45:2 0
212 _290_:X _290_:X 0
*END

*D_NET *46 0.00024524937376
*CONN
*I _376_:A0 I
*I _292_:X O
*CAP
152 _292_:X 0.00024524937376
153 _376_:A0 0
*RES
213 _292_:X _376_:A0 2.464285714285714
214 _376_:A0 _376_:A0 0
215 _292_:X _292_:X 0
*END

*D_NET *47 0.00264823400608
*CONN
*I _374_:A0 I
*I _307_:B1 I
*I _299_:Y O
*CAP
154 _299_:Y 0.00086895767712
155 *47:2 0.0009481108179199999
156 _307_:B1 4.017137184e-05
157 *47:3 0.0007909941392
158 _374_:A0 0
*RES
216 _299_:Y *47:1 9.035714285714285
217 *47:2 *47:1 0.30357142857142855
218 *47:2 _374_:A0 9.446428571428571
219 _307_:B1 *47:3 0.30357142857142855
220 *47:3 _299_:Y 8.214285714285714
221 _299_:Y _299_:Y 0
222 _374_:A0 _374_:A0 0
223 _307_:B1 _307_:B1 0
*END

*D_NET *48 0.0020901593401600003
*CONN
*I _372_:A0 I
*I _307_:A3 I
*I _304_:B1 I
*I _297_:A I
*I _296_:X O
*CAP
159 *48:1 5.034052896000001e-05
160 *48:2 0.00083153229788
161 *48:4 5.034052896000001e-05
162 *48:3 0.00019595053436
163 *48:6 0.0002062676048
164 *48:5 0.0002753982548
165 _296_:X 0.0004803295904
166 _307_:A3 0
167 _372_:A0 0
168 _304_:B1 0
169 _297_:A 0
*RES
224 *48:1 _307_:A3 0.4107142857142857
225 *48:2 *48:3 9.410714285714285
226 *48:4 _296_:X 0.4107142857142857
227 *48:3 *48:5 2.1249999999999996
228 *48:6 _304_:B1 2.0535714285714284
229 *48:5 *48:7 3.035714285714285
230 _296_:X _297_:A 4.517857142857142
231 _296_:X _296_:X 0.30357142857142855
232 _307_:A3 _307_:A3 0
233 *48:1 *48:3 0
234 _372_:A0 _372_:A0 0
235 _372_:A0 *48:2 0
236 _296_:X _296_:X 0
237 *48:4 *48:5 0
238 _304_:B1 _304_:B1 0
239 *48:6 *48:7 0
240 _297_:A _297_:A 0
*END

*D_NET *49 0.00041323315212
*CONN
*I _370_:A0 I
*I _291_:X O
*CAP
170 *49:1 9.002024044000002e-05
171 _291_:X 0.00032321291168
172 _370_:A0 0
173 *49:3 0
*RES
241 *49:1 *49:2 0.9107142857142857
242 _291_:X *49:3 3.2857142857142856
243 _370_:A0 _370_:A0 0
244 _370_:A0 *49:1 0
245 *49:3 *49:2 0
246 _291_:X _291_:X 0
*END

*D_NET *50 0.0021864251398000002
*CONN
*I _368_:A0 I
*I _302_:Y O
*CAP
174 _368_:A0 5.034052896000001e-05
175 *50:2 0.0018908352370800002
176 _302_:Y 0.00024524937376
177 *50:1 0
178 *50:4 0
*RES
247 _368_:A0 *50:1 0.4107142857142857
248 *50:2 *50:3 21.553571428571427
249 _302_:Y *50:4 2.464285714285714
250 _368_:A0 _368_:A0 0
251 *50:1 *50:2 0
252 *50:4 *50:3 0
253 _302_:Y _302_:Y 0
*END

*D_NET *51 0.00016847543872000001
*CONN
*I _366_:A0 I
*I _304_:X O
*CAP
179 *51:1 0.00016847543872000001
180 _304_:X 0
181 _366_:A0 0
*RES
254 *51:1 _304_:X 1.232142857142857
255 *51:1 _366_:A0 0.30357142857142855
256 _304_:X _304_:X 0
257 _366_:A0 _366_:A0 0
*END

*D_NET *52 0.0011024057979200001
*CONN
*I _364_:A0 I
*I _293_:X O
*CAP
182 *52:1 0.00011650281392
183 _364_:A0 0.000985902984
184 _293_:X 0
185 *52:3 0
*RES
258 *52:1 *52:2 1.2142857142857142
259 _364_:A0 *52:3 10.267857142857142
260 _364_:A0 _364_:A0 0
261 _293_:X _293_:X 0
262 _293_:X *52:1 0
263 *52:3 *52:2 0
*END

*D_NET *53 0.0017533680714800002
*CONN
*I _362_:A0 I
*I _305_:X O
*CAP
186 *53:1 0.0012396266553600002
187 *53:3 0.00051374141612
188 _362_:A0 0
189 *53:2 0
190 _305_:X 0
*RES
264 *53:1 _362_:A0 0.9107142857142857
265 *53:1 *53:2 11.910714285714285
266 *53:3 *53:4 5.767857142857142
267 _362_:A0 _362_:A0 0
268 *53:2 *53:4 0
269 _305_:X _305_:X 0
270 _305_:X *53:3 0
*END

*D_NET *54 0.00080305084172
*CONN
*I _360_:A0 I
*I _303_:X O
*CAP
191 *54:1 9.002024044000002e-05
192 _360_:A0 0.00071303060128
193 *54:3 0
194 _303_:X 0
*RES
271 *54:1 *54:2 0.9107142857142857
272 _360_:A0 *54:3 7.3928571428571415
273 _360_:A0 _360_:A0 0
274 *54:3 *54:1 0
275 _303_:X _303_:X 0
276 _303_:X *54:2 0
*END

*D_NET *55 0.0062618838237199995
*CONN
*I _358_:A0 I
*I _301_:Y O
*CAP
195 *55:1 0.00014298538739999998
196 *55:3 0.0005972748972799999
197 *55:6 0.00149266598048
198 *55:7 0.00244696928016
199 *55:9 0.00012830406688
200 *55:10 0.00145368421152
201 _358_:A0 0
202 *55:4 0
203 _301_:Y 0
*RES
277 *55:1 *55:2 1.5178571428571426
278 *55:3 *55:4 5.75
279 *55:3 *55:5 0.30357142857142855
280 *55:6 *55:5 15.607142857142856
281 *55:7 *55:8 27.928571428571427
282 *55:9 _301_:Y 1.232142857142857
283 *55:10 _358_:A0 15.19642857142857
284 _358_:A0 _358_:A0 0
285 *55:10 *55:1 0
286 *55:4 *55:2 0
287 *55:6 *55:7 0
288 *55:9 *55:8 0
289 _301_:Y _301_:Y 0
*END

*D_NET *56 0.0020471060599600004
*CONN
*I _356_:A0 I
*I _306_:X O
*CAP
204 _306_:X 5.034052896000001e-05
205 *56:2 0.0019967655310000002
206 _356_:A0 0
207 *56:1 0
*RES
290 _306_:X *56:1 0.4107142857142857
291 *56:2 *56:3 22.767857142857142
292 _356_:A0 _356_:A0 0
293 _356_:A0 *56:2 0
294 *56:1 *56:3 0
295 _306_:X _306_:X 0
*END

*D_NET *57 0.0004956492375999999
*CONN
*I _354_:A0 I
*I _307_:X O
*CAP
208 *57:1 0.00032836340175999997
209 *57:3 0.00016728583584
210 _354_:A0 0
211 _307_:X 0
*RES
296 *57:1 *57:2 3.642857142857143
297 *57:3 _307_:X 1.6428571428571428
298 _354_:A0 _354_:A0 0
299 _354_:A0 *57:1 0
300 *57:3 *57:2 0
301 _307_:X _307_:X 0
*END

*D_NET *58 0.00283877510188
*CONN
*I _378_:A0 I
*I _303_:B1 I
*I _300_:Y O
*CAP
212 *58:1 8.932229792e-05
213 *58:2 0.00136118376748
214 _300_:Y 0.00012830406688
215 *58:5 0.0012599649696
216 _378_:A0 0
217 *58:4 0
218 _303_:B1 0
219 *58:6 0
*RES
302 *58:1 _378_:A0 0.8214285714285714
303 *58:2 *58:3 15.482142857142856
304 _300_:Y *58:4 1.232142857142857
305 *58:5 _303_:B1 0.30357142857142855
306 *58:5 *58:6 12.732142857142856
307 _378_:A0 _378_:A0 0
308 *58:1 *58:2 0
309 *58:4 *58:3 0
310 _300_:Y _300_:Y 0
311 _303_:B1 _303_:B1 0
312 *58:6 *58:7 0
*END

*D_NET *59 0.00053349057108
*CONN
*I _377_:A0 I
*I _308_:X O
*CAP
220 _377_:A0 0.00012830406688
221 *59:2 0.00035484597524
222 *59:4 5.034052896000001e-05
223 *59:1 0
224 _308_:X 0
*RES
313 _377_:A0 *59:1 1.232142857142857
314 *59:2 *59:3 3.946428571428571
315 *59:4 _308_:X 0.4107142857142857
316 _377_:A0 _377_:A0 0
317 *59:1 *59:2 0
318 *59:4 *59:3 0
319 _308_:X _308_:X 0
*END

*D_NET *60 0.00106624572768
*CONN
*I _380_:A0 I
*I _313_:B I
*I _309_:X O
*CAP
225 _313_:B 0.00027525158848
226 _309_:X 0.0007909941392
227 _380_:A0 0
*RES
320 _313_:B *60:1 0.6071428571428571
321 _309_:X *60:1 8.214285714285714
322 _313_:B _380_:A0 2.0535714285714284
323 _313_:B _313_:B 0
324 _309_:X _309_:X 0
325 _380_:A0 _380_:A0 0
*END

*D_NET *61 0.00275352472632
*CONN
*I _375_:A0 I
*I _316_:X O
*CAP
228 *61:1 0.00030188082828000006
229 _316_:X 0.00016728583584
230 *61:4 9.002024044000002e-05
231 *61:6 0.00219433782176
232 _375_:A0 0
233 *61:7 0
234 *61:3 0
*RES
326 *61:1 *61:2 3.339285714285714
327 _316_:X *61:3 1.6428571428571428
328 *61:4 *61:5 0.9107142857142857
329 *61:6 *61:7 23.0
330 _375_:A0 _375_:A0 0
331 _375_:A0 *61:1 0
332 *61:7 *61:2 0
333 _316_:X _316_:X 0
334 *61:3 *61:4 0
335 *61:6 *61:5 0
*END

*D_NET *62 0.00300635462144
*CONN
*I _373_:A0 I
*I _317_:X O
*CAP
235 *62:1 9.779659552000001e-05
236 *62:2 0.00030491163008
237 _317_:X 0.00260364639584
238 _373_:A0 0
*RES
336 *62:1 _373_:A0 0.9107142857142857
337 *62:2 *62:1 2.669642857142857
338 *62:2 *62:3 0.30357142857142855
339 _317_:X *62:3 27.312499999999996
340 _373_:A0 _373_:A0 0
341 _317_:X _317_:X 0
*END

*D_NET *63 0.0002854207456
*CONN
*I _380_:X O
*I _318_:A I
*CAP
239 _318_:A 4.017137184e-05
240 _380_:X 0.00024524937376
*RES
342 _318_:A *63:1 0.30357142857142855
343 _380_:X *63:1 2.464285714285714
344 _318_:A _318_:A 0
345 _380_:X _380_:X 0
*END

*D_NET *64 0.00029777202776
*CONN
*I _371_:A0 I
*I _318_:X O
*CAP
241 *64:1 0.00012830406688
242 *64:2 0.00016946796088000002
243 _318_:X 0
244 _371_:A0 0
*RES
346 *64:1 _318_:X 1.232142857142857
347 *64:2 *64:3 1.8214285714285714
348 _318_:X _318_:X 0
349 *64:1 *64:2 0
350 _371_:A0 _371_:A0 0
351 _371_:A0 *64:3 0
*END

*D_NET *65 0.0026977120936000007
*CONN
*I _369_:A0 I
*I _319_:X O
*CAP
245 _369_:A0 0.00016728583584
246 *65:2 0.0022947518631800004
247 *65:5 0.00023567439458000006
248 *65:1 0
249 _319_:X 0
*RES
352 _369_:A0 *65:1 1.6428571428571428
353 *65:2 *65:3 0.4107142857142857
354 *65:2 *65:4 25.65178571428571
355 *65:5 *65:3 2.580357142857143
356 _369_:A0 _369_:A0 0
357 *65:1 *65:5 0
358 _319_:X _319_:X 0
359 _319_:X *65:4 0
*END

*D_NET *66 0.0035910198818800004
*CONN
*I _367_:A0 I
*I _319_:B1 I
*I _317_:B1 I
*I _312_:B1 I
*I _310_:Y O
*CAP
250 *66:1 0.00012830406688
251 *66:2 0.0002753982548
252 _367_:A0 0.0010638665219200002
253 *66:5 4.017137184e-05
254 *66:4 0.00055710352544
255 _310_:Y 5.034052896000001e-05
256 *66:3 0.00056670656308
257 _317_:B1 4.017137184e-05
258 *66:9 0.00086895767712
259 _319_:B1 0
260 _312_:B1 0
261 *66:6 0
*RES
360 *66:1 _319_:B1 1.232142857142857
361 *66:2 *66:3 3.035714285714285
362 _367_:A0 *66:4 11.089285714285714
363 *66:5 _312_:B1 0.30357142857142855
364 *66:4 *66:5 5.75
365 _310_:Y *66:6 0.4107142857142857
366 *66:3 *66:7 6.374999999999999
367 _317_:B1 *66:8 0.30357142857142855
368 *66:9 *66:8 9.035714285714285
369 _319_:B1 _319_:B1 0
370 *66:1 *66:3 0
371 *66:4 *66:2 0
372 _367_:A0 _367_:A0 0
373 _312_:B1 _312_:B1 0
374 _310_:Y _310_:Y 0
375 *66:6 *66:7 0
376 _317_:B1 _317_:B1 0
377 *66:9 *66:10 0
*END

*D_NET *67 0.0009991984568
*CONN
*I _365_:A0 I
*I _318_:B I
*I _313_:Y O
*CAP
262 *67:1 0.00024524937376
263 *67:2 0.00011650281392
264 *67:4 4.017137184e-05
265 _313_:Y 0.0005972748972799999
266 _365_:A0 0
267 _318_:B 0
*RES
378 *67:1 _365_:A0 2.464285714285714
379 *67:2 *67:3 1.2142857142857142
380 *67:4 _318_:B 0.30357142857142855
381 _313_:Y *67:4 5.75
382 _313_:Y _313_:Y 0.30357142857142855
383 _365_:A0 _365_:A0 0
384 *67:1 *67:2 0
385 _313_:Y _313_:Y 0
386 _313_:Y *67:3 0
387 _318_:B _318_:B 0
*END

*D_NET *68 0.00059895491352
*CONN
*I _363_:A0 I
*I _320_:X O
*CAP
268 _363_:A0 0.00016728583584
269 *68:2 5.034052896000001e-05
270 *68:3 0.00038132854871999994
271 *68:1 0
272 _320_:X 0
*RES
388 _363_:A0 *68:1 1.6428571428571428
389 *68:2 _320_:X 0.4107142857142857
390 *68:3 *68:4 4.249999999999999
391 *68:1 *68:4 0
392 _363_:A0 _363_:A0 0
393 _320_:X _320_:X 0
394 *68:2 *68:3 0
*END
