*SPEF "IEEE 1481-1998"
*DESIGN "digital_pll"
*DATE "Wed Apr 28 06:59:33 2021"
*VENDOR "AUC CSCE Department"
*PROGRAM "SPEF Extractor"
*VERSION "1.0"
*DESIGN_FLOW "PIN_CAP NONE"
*DIVIDER /
*DELIMITER :
*BUS_DELIMITER []
*T_UNIT 1.00000 NS
*C_UNIT 1.00000 PF
*R_UNIT 1.00000 OHM
*L_UNIT 1.00000 HENRY


*NAME_MAP
*0 clockc
*1 clockd[0]
*2 clockd[1]
*3 clockd[2]
*4 clockd[3]
*5 clockp[0]
*6 clockp[1]
*7 dco
*8 div[0]
*9 div[1]
*10 div[2]
*11 div[3]
*12 div[4]
*13 ext_trim[0]
*14 ext_trim[10]
*15 ext_trim[11]
*16 ext_trim[12]
*17 ext_trim[13]
*18 ext_trim[14]
*19 ext_trim[15]
*20 ext_trim[16]
*21 ext_trim[17]
*22 ext_trim[18]
*23 ext_trim[19]
*24 ext_trim[1]
*25 ext_trim[20]
*26 ext_trim[21]
*27 ext_trim[22]
*28 ext_trim[23]
*29 ext_trim[24]
*30 ext_trim[25]
*31 ext_trim[2]
*32 ext_trim[3]
*33 ext_trim[4]
*34 ext_trim[5]
*35 ext_trim[6]
*36 ext_trim[7]
*37 ext_trim[8]
*38 ext_trim[9]
*39 extclk_sel
*40 osc
*41 reset
*42 sel[0]
*43 sel[1]
*44 sel[2]
*45 _000_
*46 _001_
*47 _002_
*48 _003_
*49 _004_
*50 _005_
*51 _006_
*52 _007_
*53 _008_
*54 _009_
*55 _010_
*56 _011_
*57 _012_
*58 _013_
*59 _014_
*60 _015_
*61 _016_
*62 _017_
*63 _018_
*64 _019_
*65 _020_
*66 _021_
*67 _022_
*68 _023_
*69 _024_
*70 _025_
*71 _026_
*72 _027_
*73 _028_
*74 _029_
*75 _030_
*76 _031_
*77 _032_
*78 _033_
*79 _034_
*80 _035_
*81 _036_
*82 _037_
*83 _038_
*84 _039_
*85 _040_
*86 _041_
*87 _042_
*88 _043_
*89 _044_
*90 _045_
*91 _046_
*92 _047_
*93 _048_
*94 _049_
*95 _050_
*96 _051_
*97 _052_
*98 _053_
*99 _054_
*100 _055_
*101 _056_
*102 _057_
*103 _058_
*104 _059_
*105 _060_
*106 _061_
*107 _062_
*108 _063_
*109 _064_
*110 _065_
*111 _066_
*112 _067_
*113 _068_
*114 _069_
*115 _070_
*116 _071_
*117 _072_
*118 _073_
*119 _074_
*120 _075_
*121 _076_
*122 _077_
*123 _078_
*124 _079_
*125 _080_
*126 _081_
*127 _082_
*128 _083_
*129 _084_
*130 _085_
*131 _086_
*132 _087_
*133 _088_
*134 _089_
*135 _090_
*136 _091_
*137 _092_
*138 _093_
*139 _094_
*140 _095_
*141 _096_
*142 _097_
*143 _098_
*144 _099_
*145 _100_
*146 _101_
*147 _102_
*148 _103_
*149 _104_
*150 _105_
*151 _106_
*152 _107_
*153 _108_
*154 _109_
*155 _110_
*156 _111_
*157 _112_
*158 _113_
*159 _114_
*160 _115_
*161 _116_
*162 _117_
*163 _118_
*164 _119_
*165 _120_
*166 _121_
*167 _122_
*168 _123_
*169 _124_
*170 _125_
*171 _126_
*172 _127_
*173 _128_
*174 _129_
*175 _130_
*176 _131_
*177 _132_
*178 _133_
*179 _134_
*180 _135_
*181 _136_
*182 _137_
*183 _138_
*184 _139_
*185 _140_
*186 _141_
*187 _142_
*188 _143_
*189 _144_
*190 _145_
*191 _146_
*192 _147_
*193 _148_
*194 _149_
*195 _150_
*196 _151_
*197 _152_
*198 _153_
*199 _154_
*200 _155_
*201 _156_
*202 _157_
*203 _158_
*204 _159_
*205 _160_
*206 _161_
*207 _162_
*208 _163_
*209 _164_
*210 _165_
*211 _166_
*212 _167_
*213 _168_
*214 _169_
*215 _170_
*216 _171_
*217 _172_
*218 _173_
*219 _174_
*220 _175_
*221 nint\[0\]
*222 nint\[1\]
*223 nint\[2\]
*224 nint\[3\]
*225 pll_control.clock
*226 pll_control.count0\[0\]
*227 pll_control.count0\[1\]
*228 pll_control.count0\[2\]
*229 pll_control.count0\[3\]
*230 pll_control.count0\[4\]
*231 pll_control.count1\[0\]
*232 pll_control.count1\[1\]
*233 pll_control.count1\[2\]
*234 pll_control.count1\[3\]
*235 pll_control.count1\[4\]
*236 pll_control.oscbuf\[0\]
*237 pll_control.oscbuf\[1\]
*238 pll_control.oscbuf\[2\]
*239 pll_control.prep\[0\]
*240 pll_control.prep\[1\]
*241 pll_control.prep\[2\]
*242 pll_control.tint\[0\]
*243 pll_control.tint\[1\]
*244 pll_control.tint\[2\]
*245 pll_control.tint\[3\]
*246 pll_control.tint\[4\]
*247 pll_control.tval\[0\]
*248 pll_control.tval\[1\]
*249 resetb
*250 ringosc.c\[0\]
*251 ringosc.c\[1\]
*252 ringosc.dstage\[0\].id.d0
*253 ringosc.dstage\[0\].id.d1
*254 ringosc.dstage\[0\].id.d2
*255 ringosc.dstage\[0\].id.in
*256 ringosc.dstage\[0\].id.out
*257 ringosc.dstage\[0\].id.trim\[0\]
*258 ringosc.dstage\[0\].id.trim\[1\]
*259 ringosc.dstage\[0\].id.ts
*260 ringosc.dstage\[10\].id.d0
*261 ringosc.dstage\[10\].id.d1
*262 ringosc.dstage\[10\].id.d2
*263 ringosc.dstage\[10\].id.in
*264 ringosc.dstage\[10\].id.out
*265 ringosc.dstage\[10\].id.trim\[0\]
*266 ringosc.dstage\[10\].id.trim\[1\]
*267 ringosc.dstage\[10\].id.ts
*268 ringosc.dstage\[11\].id.d0
*269 ringosc.dstage\[11\].id.d1
*270 ringosc.dstage\[11\].id.d2
*271 ringosc.dstage\[11\].id.out
*272 ringosc.dstage\[11\].id.trim\[0\]
*273 ringosc.dstage\[11\].id.trim\[1\]
*274 ringosc.dstage\[11\].id.ts
*275 ringosc.dstage\[1\].id.d0
*276 ringosc.dstage\[1\].id.d1
*277 ringosc.dstage\[1\].id.d2
*278 ringosc.dstage\[1\].id.out
*279 ringosc.dstage\[1\].id.trim\[0\]
*280 ringosc.dstage\[1\].id.trim\[1\]
*281 ringosc.dstage\[1\].id.ts
*282 ringosc.dstage\[2\].id.d0
*283 ringosc.dstage\[2\].id.d1
*284 ringosc.dstage\[2\].id.d2
*285 ringosc.dstage\[2\].id.out
*286 ringosc.dstage\[2\].id.trim\[0\]
*287 ringosc.dstage\[2\].id.trim\[1\]
*288 ringosc.dstage\[2\].id.ts
*289 ringosc.dstage\[3\].id.d0
*290 ringosc.dstage\[3\].id.d1
*291 ringosc.dstage\[3\].id.d2
*292 ringosc.dstage\[3\].id.out
*293 ringosc.dstage\[3\].id.trim\[0\]
*294 ringosc.dstage\[3\].id.trim\[1\]
*295 ringosc.dstage\[3\].id.ts
*296 ringosc.dstage\[4\].id.d0
*297 ringosc.dstage\[4\].id.d1
*298 ringosc.dstage\[4\].id.d2
*299 ringosc.dstage\[4\].id.out
*300 ringosc.dstage\[4\].id.trim\[0\]
*301 ringosc.dstage\[4\].id.trim\[1\]
*302 ringosc.dstage\[4\].id.ts
*303 ringosc.dstage\[5\].id.d0
*304 ringosc.dstage\[5\].id.d1
*305 ringosc.dstage\[5\].id.d2
*306 ringosc.dstage\[5\].id.out
*307 ringosc.dstage\[5\].id.trim\[0\]
*308 ringosc.dstage\[5\].id.trim\[1\]
*309 ringosc.dstage\[5\].id.ts
*310 ringosc.dstage\[6\].id.d0
*311 ringosc.dstage\[6\].id.d1
*312 ringosc.dstage\[6\].id.d2
*313 ringosc.dstage\[6\].id.out
*314 ringosc.dstage\[6\].id.trim\[0\]
*315 ringosc.dstage\[6\].id.trim\[1\]
*316 ringosc.dstage\[6\].id.ts
*317 ringosc.dstage\[7\].id.d0
*318 ringosc.dstage\[7\].id.d1
*319 ringosc.dstage\[7\].id.d2
*320 ringosc.dstage\[7\].id.out
*321 ringosc.dstage\[7\].id.trim\[0\]
*322 ringosc.dstage\[7\].id.trim\[1\]
*323 ringosc.dstage\[7\].id.ts
*324 ringosc.dstage\[8\].id.d0
*325 ringosc.dstage\[8\].id.d1
*326 ringosc.dstage\[8\].id.d2
*327 ringosc.dstage\[8\].id.out
*328 ringosc.dstage\[8\].id.trim\[0\]
*329 ringosc.dstage\[8\].id.trim\[1\]
*330 ringosc.dstage\[8\].id.ts
*331 ringosc.dstage\[9\].id.d0
*332 ringosc.dstage\[9\].id.d1
*333 ringosc.dstage\[9\].id.d2
*334 ringosc.dstage\[9\].id.trim\[0\]
*335 ringosc.dstage\[9\].id.trim\[1\]
*336 ringosc.dstage\[9\].id.ts
*337 ringosc.iss.ctrl0
*338 ringosc.iss.d0
*339 ringosc.iss.d1
*340 ringosc.iss.d2
*341 ringosc.iss.one
*342 ringosc.iss.reset
*343 ringosc.iss.trim\[0\]
*344 ringosc.iss.trim\[1\]
*345 net1
*346 net2
*347 net3
*348 net4
*349 net5
*350 net6
*351 net7
*352 net8
*353 net9
*354 net10
*355 net11
*356 net12
*357 net13
*358 net14
*359 net15
*360 net16
*361 net17
*362 net18
*363 net19
*364 net20
*365 net21
*366 net22
*367 net23
*368 net24
*369 net25
*370 net26
*371 net27
*372 net28
*373 net29
*374 net30
*375 net31
*376 net32
*377 net33
*378 net34
*379 net35
*380 net36
*381 net37
*382 net38
*383 net39
*384 net40
*385 net41
*386 net42
*387 net43
*388 net44
*389 net45
*390 net46
*391 net47
*392 net48
*393 net49
*394 net50
*395 net51
*396 net52
*397 net53
*398 net54
*399 net55
*400 net56
*401 net57
*402 net58
*403 net59
*404 net60
*405 net61
*406 net62
*407 net63
*408 net64
*409 net65
*410 net66
*411 net67
*412 net68
*413 net69
*414 net70
*415 net71
*416 net72
*417 net73
*418 net74
*419 net75
*420 net76
*421 net77
*422 net78
*423 net79
*424 net80
*425 net81
*426 net82
*427 net83
*428 net84
*429 net85
*430 net86
*431 net87
*432 net88
*433 net89
*434 net90
*435 net91

*D_NET *0 0.00042287193864
*CONN
*P clockc O
*I output77:X O
*CAP
0 *0:1 2.3813806740000006e-05
1 *0:3 0.00039905813189999997
2 output77:X 0
3 *0:2 0
*RES
0 *0:1 *0:2 0.15178571428571427
1 *0:3 *0:4 0.6846333333333334
2 output77:X output77:X 0
3 output77:X *0:1 0
4 *0:2 *0:4 0
*END

*D_NET *1 0.00042287193864
*CONN
*P clockd[0] O
*I output78:X O
*CAP
4 *1:1 2.3813806740000006e-05
5 *1:3 0.00039905813189999997
6 output78:X 0
7 *1:2 0
*RES
5 *1:1 *1:2 0.15178571428571427
6 *1:3 *1:4 0.6846333333333334
7 output78:X output78:X 0
8 output78:X *1:1 0
9 *1:2 *1:4 0
*END

*D_NET *2 0.00042287193864
*CONN
*P clockd[1] O
*I output79:X O
*CAP
8 *2:1 0.00039905813189999997
9 *2:3 2.3813806740000006e-05
10 output79:X 0
*RES
10 *2:1 *2:2 0.6846333333333334
11 *2:3 *2:4 0.15178571428571427
12 *2:3 *2:2 0
13 output79:X output79:X 0
14 output79:X *2:4 0
*END

*D_NET *3 0.0010508441302
*CONN
*P clockd[2] O
*I output80:X O
*CAP
11 *3:1 0.00016728583584
12 *3:2 0.00012974410066
13 *3:4 0.0007538141937
14 output80:X 0
*RES
15 *3:1 output80:X 1.6428571428571428
16 *3:2 *3:3 1.3660714285714284
17 *3:4 *3:5 1.3332333333333333
18 output80:X output80:X 0
19 *3:1 *3:3 0
20 *3:2 *3:4 0
*END

*D_NET *4 0.00063291299678
*CONN
*P clockd[3] O
*I output81:X O
*CAP
15 *4:1 0.00063291299678
16 output81:X 0
*RES
21 *4:1 *4:2 7.133928571428571
22 output81:X output81:X 0
23 output81:X *4:2 0
*END

*D_NET *5 0.00058176737952
*CONN
*P clockp[0] O
*I output82:X O
*CAP
17 *5:1 0.00018270924762000003
18 *5:3 0.00039905813189999997
19 output82:X 0
20 *5:2 0
*RES
24 *5:1 *5:2 1.9732142857142856
25 *5:3 *5:4 0.6846333333333334
26 output82:X output82:X 0
27 output82:X *5:1 0
28 *5:2 *5:4 0
*END

*D_NET *6 0.00063291299678
*CONN
*P clockp[1] O
*I output83:X O
*CAP
21 *6:1 0.00063291299678
22 output83:X 0
*RES
29 *6:1 *6:2 7.133928571428571
30 output83:X output83:X 0
31 output83:X *6:2 0
*END

*D_NET *7 0.0008141822106200002
*CONN
*P dco I
*I input39:A I
*CAP
23 *7:1 0.0006858781437400002
24 *7:3 0.00012830406688
25 input39:A 0
*RES
32 *7:1 *7:2 7.741071428571428
33 *7:3 input39:A 1.232142857142857
34 *7:3 *7:2 0
35 input39:A input39:A 0
*END

*D_NET *8 0.0006335064463999999
*CONN
*P div[0] I
*I input40:A I
*CAP
26 *8:1 7.67789537e-05
27 *8:3 0.0005567274927
28 input40:A 0
29 *8:2 0
*RES
36 *8:1 *8:2 0.7589285714285713
37 *8:3 *8:4 0.9729000000000001
38 input40:A input40:A 0
39 input40:A *8:1 0
40 *8:2 *8:3 0
*END

*D_NET *9 0.00102307443342
*CONN
*P div[1] I
*I input41:A I
*CAP
30 *9:1 0.00028423114272
31 *9:2 0.0007388432907000001
32 input41:A 0
*RES
41 *9:1 input41:A 2.875
42 *9:2 *9:3 8.348214285714285
43 input41:A input41:A 0
44 *9:1 *9:2 0
*END

*D_NET *10 0.0007388432907000001
*CONN
*P div[2] I
*I input42:A I
*CAP
33 *10:1 0.0007388432907000001
34 input42:A 0
*RES
45 *10:1 *10:2 8.348214285714285
46 input42:A input42:A 0
47 input42:A *10:1 0
*END

*D_NET *11 0.0016717811277400002
*CONN
*P div[3] I
*I input43:A I
*CAP
35 *11:1 0.0006858781437400002
36 *11:3 0.000985902984
37 input43:A 0
*RES
48 *11:1 *11:2 7.741071428571428
49 *11:3 input43:A 10.267857142857142
50 *11:3 *11:2 0
51 input43:A input43:A 0
*END

*D_NET *12 0.00082816558862
*CONN
*P div[4] I
*I input44:A I
*CAP
38 *12:1 8.932229792e-05
39 *12:2 0.0007388432907000001
40 input44:A 0
*RES
52 *12:1 input44:A 0.8214285714285714
53 *12:2 *12:3 8.348214285714285
54 input44:A input44:A 0
55 *12:1 *12:2 0
*END

*D_NET *13 0.0007891838196600001
*CONN
*P ext_trim[0] I
*I input45:A I
*CAP
41 *13:1 5.034052896000001e-05
42 *13:2 0.0007388432907000001
43 input45:A 0
*RES
56 *13:1 input45:A 0.4107142857142857
57 *13:2 *13:3 8.348214285714285
58 input45:A input45:A 0
59 *13:1 *13:2 0
*END

*D_NET *14 0.00088083615594
*CONN
*P ext_trim[10] I
*I input46:A I
*CAP
44 *14:1 0.0007123607172200001
45 *14:3 0.00012830406688
46 input46:A 4.017137184e-05
47 *14:4 0
*RES
60 *14:1 *14:2 8.044642857142856
61 *14:3 *14:4 1.232142857142857
62 input46:A *14:3 0.30357142857142855
63 *14:4 *14:2 0
64 input46:A input46:A 0
*END

*D_NET *15 0.0007388432907000001
*CONN
*P ext_trim[11] I
*I input47:A I
*CAP
48 *15:1 0.0007388432907000001
49 input47:A 0
*RES
65 *15:1 *15:2 8.348214285714285
66 input47:A input47:A 0
67 input47:A *15:1 0
*END

*D_NET *16 0.00071295416684
*CONN
*P ext_trim[12] I
*I input48:A I
*CAP
50 *16:1 0.00015622667414000004
51 *16:3 0.0005567274927
52 input48:A 0
53 *16:2 0
*RES
68 *16:1 *16:2 1.669642857142857
69 *16:3 *16:4 0.9729000000000001
70 input48:A input48:A 0
71 input48:A *16:1 0
72 *16:2 *16:3 0
*END

*D_NET *17 0.0009311275175000002
*CONN
*P ext_trim[13] I
*I input49:A I
*CAP
54 *17:1 0.0006858781437400002
55 *17:3 0.00024524937376
56 input49:A 0
*RES
73 *17:1 *17:2 7.741071428571428
74 *17:3 input49:A 2.464285714285714
75 *17:3 *17:2 0
76 input49:A input49:A 0
*END

*D_NET *18 0.0007752004416600002
*CONN
*P ext_trim[14] I
*I input50:A I
*CAP
57 *18:1 0.0006858781437400002
58 *18:3 8.932229792e-05
59 input50:A 0
*RES
77 *18:1 *18:2 7.741071428571428
78 *18:3 input50:A 0.8214285714285714
79 *18:3 *18:2 0
80 input50:A input50:A 0
*END

*D_NET *19 0.00114279104612
*CONN
*P ext_trim[15] I
*I input51:A I
*CAP
60 *19:1 0.0002062676048
61 *19:2 0.00018270924762000003
62 *19:4 0.0007538141937
63 input51:A 0
*RES
81 *19:1 input51:A 2.0535714285714284
82 *19:2 *19:3 1.9732142857142856
83 *19:4 *19:5 1.3332333333333333
84 input51:A input51:A 0
85 *19:1 *19:3 0
86 *19:2 *19:4 0
*END

*D_NET *20 0.0009209693568600001
*CONN
*P ext_trim[16] I
*I input52:A I
*CAP
64 input52:A 8.932229792e-05
65 *20:2 0.00020919182110000001
66 *20:4 0.00062245523784
67 *20:1 0
*RES
87 input52:A *20:1 0.8214285714285714
88 *20:2 *20:3 2.276785714285714
89 *20:4 *20:3 0.8214285714285714
90 *20:4 *20:5 6.07142857142857
91 input52:A input52:A 0
92 *20:1 *20:2 0
*END

*D_NET *21 0.0006747629067200001
*CONN
*P ext_trim[17] I
*I input53:A I
*CAP
68 *21:1 0.0003596407917
69 *21:3 0.00031512211502
70 input53:A 0
*RES
93 *21:1 *21:2 0.6125666666666667
94 *21:3 *21:4 3.4910714285714284
95 *21:3 *21:2 0
96 input53:A input53:A 0
97 input53:A *21:4 0
*END

*D_NET *22 0.0007388432907000001
*CONN
*P ext_trim[18] I
*I input54:A I
*CAP
71 *22:1 0.0007388432907000001
72 input54:A 0
*RES
98 *22:1 *22:2 8.348214285714285
99 input54:A input54:A 0
100 input54:A *22:1 0
*END

*D_NET *23 0.0006335064463999999
*CONN
*P ext_trim[19] I
*I input55:A I
*CAP
73 *23:1 7.67789537e-05
74 *23:3 0.0005567274927
75 input55:A 0
76 *23:2 0
*RES
101 *23:1 *23:2 0.7589285714285713
102 *23:3 *23:4 0.9729000000000001
103 input55:A input55:A 0
104 input55:A *23:1 0
105 *23:2 *23:3 0
*END

*D_NET *24 0.0007388432907000001
*CONN
*P ext_trim[1] I
*I input56:A I
*CAP
77 *24:1 0.0007388432907000001
78 input56:A 0
*RES
106 *24:1 *24:2 8.348214285714285
107 input56:A input56:A 0
108 input56:A *24:1 0
*END

*D_NET *25 0.00122151391594
*CONN
*P ext_trim[20] I
*I input57:A I
*CAP
79 *25:1 0.00023567439458000006
80 *25:3 0.00062245523784
81 *25:5 4.017137184e-05
82 *25:6 0.00032321291168
83 input57:A 0
*RES
109 *25:1 *25:2 2.580357142857143
110 *25:3 *25:2 0.8214285714285714
111 *25:3 *25:4 6.07142857142857
112 *25:5 input57:A 0.30357142857142855
113 *25:6 *25:5 3.2857142857142856
114 *25:6 *25:1 0
115 input57:A input57:A 0
*END

*D_NET *26 0.0004364197454
*CONN
*P ext_trim[21] I
*I input58:A I
*CAP
84 *26:1 0.0003596407917
85 *26:3 7.67789537e-05
86 *26:4 0
87 input58:A 0
*RES
116 *26:1 *26:2 0.6125666666666667
117 *26:3 *26:4 0.7589285714285713
118 *26:4 *26:2 0
119 input58:A input58:A 0
120 input58:A *26:3 0
*END

*D_NET *27 0.0018593896371
*CONN
*P ext_trim[22] I
*I input59:A I
*CAP
88 *27:1 0.0002753982548
89 *27:3 0.00044097171957999993
90 *27:5 0.00114301966272
91 *27:6 0
92 input59:A 0
*RES
121 *27:1 *27:2 3.035714285714285
122 *27:3 *27:2 0.4107142857142857
123 *27:3 *27:4 4.4017857142857135
124 *27:5 *27:6 11.5
125 *27:5 input59:A 0.30357142857142855
126 *27:6 *27:4 0
127 input59:A input59:A 0
*END

*D_NET *28 0.00081888446076
*CONN
*P ext_trim[23] I
*I input60:A I
*CAP
93 *28:1 0.00026215696806
94 *28:3 0.0005567274927
95 input60:A 0
96 *28:2 0
*RES
128 *28:1 *28:2 2.883928571428571
129 *28:3 *28:4 0.9729000000000001
130 input60:A input60:A 0
131 input60:A *28:1 0
132 *28:2 *28:3 0
*END

*D_NET *29 0.0012169142525000002
*CONN
*P ext_trim[24] I
*I input61:A I
*CAP
97 *29:1 0.0007941451353200002
98 *29:2 4.640188412000001e-05
99 *29:3 0.00032602670409999997
100 *29:5 5.034052896000001e-05
101 input61:A 0
*RES
133 *29:1 *29:2 8.982142857142856
134 *29:2 *29:3 0.4107142857142857
135 *29:3 *29:4 3.616071428571428
136 *29:5 input61:A 0.4107142857142857
137 *29:5 *29:4 0
138 input61:A input61:A 0
*END

*D_NET *30 0.00082816558862
*CONN
*P ext_trim[25] I
*I input62:A I
*CAP
102 *30:1 8.932229792e-05
103 *30:2 0.0007388432907000001
104 input62:A 0
*RES
139 *30:1 input62:A 0.8214285714285714
140 *30:2 *30:3 8.348214285714285
141 input62:A input62:A 0
142 *30:1 *30:2 0
*END

*D_NET *31 0.0006858781437400002
*CONN
*P ext_trim[2] I
*I input63:A I
*CAP
105 *31:1 0.0006858781437400002
106 input63:A 0
*RES
143 *31:1 *31:2 7.741071428571428
144 input63:A input63:A 0
145 input63:A *31:2 0
*END

*D_NET *32 0.0006864715933599999
*CONN
*P ext_trim[3] I
*I input64:A I
*CAP
107 *32:1 0.00012974410066
108 *32:3 0.0005567274927
109 input64:A 0
110 *32:2 0
*RES
146 *32:1 *32:2 1.3660714285714284
147 *32:3 *32:4 0.9729000000000001
148 input64:A input64:A 0
149 input64:A *32:1 0
150 *32:2 *32:3 0
*END

*D_NET *33 0.00154975753798
*CONN
*P ext_trim[4] I
*I input65:A I
*CAP
111 *33:1 0.0011095993194200002
112 input65:A 0.00044015821855999997
113 *33:3 0
*RES
151 *33:1 *33:2 12.598214285714285
152 input65:A *33:3 4.517857142857142
153 *33:3 *33:2 0
154 input65:A input65:A 0
*END

*D_NET *34 0.0006599890198799999
*CONN
*P ext_trim[5] I
*I input66:A I
*CAP
114 *34:1 0.00010326152718000001
115 *34:3 0.0005567274927
116 input66:A 0
117 *34:2 0
*RES
155 *34:1 *34:2 1.0624999999999998
156 *34:3 *34:4 0.9729000000000001
157 input66:A input66:A 0
158 input66:A *34:1 0
159 *34:2 *34:3 0
*END

*D_NET *35 0.00038345459844
*CONN
*P ext_trim[6] I
*I input67:A I
*CAP
118 *35:1 0.0003596407917
119 *35:3 2.3813806740000006e-05
120 *35:4 0
121 input67:A 0
*RES
160 *35:1 *35:2 0.6125666666666667
161 *35:3 *35:4 0.15178571428571427
162 *35:4 *35:2 0
163 input67:A input67:A 0
164 input67:A *35:3 0
*END

*D_NET *36 0.0013349285851000001
*CONN
*P ext_trim[7] I
*I input68:A I
*CAP
122 *36:1 0.0005960852944
123 *36:2 0.0007388432907000001
124 input68:A 0
*RES
165 *36:1 input68:A 6.160714285714286
166 *36:2 *36:3 8.348214285714285
167 input68:A input68:A 0
168 *36:1 *36:2 0
*END

*D_NET *37 0.0006747629067200001
*CONN
*P ext_trim[8] I
*I input69:A I
*CAP
125 *37:1 0.0003596407917
126 *37:3 0.00031512211502
127 input69:A 0
*RES
169 *37:1 *37:2 0.6125666666666667
170 *37:3 *37:4 3.4910714285714284
171 *37:3 *37:2 0
172 input69:A input69:A 0
173 input69:A *37:4 0
*END

*D_NET *38 0.0010670971886
*CONN
*P ext_trim[9] I
*I input70:A I
*CAP
128 *38:1 7.67789537e-05
129 *38:3 0.0009903182348999999
130 input70:A 0
*RES
174 *38:1 *38:2 0.7589285714285713
175 *38:3 *38:4 1.7656333333333334
176 input70:A input70:A 0
177 input70:A *38:2 0
178 *38:1 *38:3 0
*END

*D_NET *39 0.00040993717191999997
*CONN
*P extclk_sel I
*I input71:A I
*CAP
131 *39:1 0.0003596407917
132 *39:3 5.029638022e-05
133 *39:4 0
134 input71:A 0
*RES
179 *39:1 *39:2 0.6125666666666667
180 *39:3 *39:4 0.45535714285714285
181 *39:4 *39:2 0
182 input71:A input71:A 0
183 input71:A *39:3 0
*END

*D_NET *40 0.00082816558862
*CONN
*P osc I
*I input72:A I
*CAP
135 *40:1 8.932229792e-05
136 *40:2 0.0007388432907000001
137 input72:A 0
*RES
184 *40:1 input72:A 0.8214285714285714
185 *40:2 *40:3 8.348214285714285
186 input72:A input72:A 0
187 *40:1 *40:2 0
*END

*D_NET *41 0.0007752004416600002
*CONN
*P reset I
*I input73:A I
*CAP
138 *41:1 0.0006858781437400002
139 *41:3 8.932229792e-05
140 input73:A 0
*RES
188 *41:1 *41:2 7.741071428571428
189 *41:3 input73:A 0.8214285714285714
190 *41:3 *41:2 0
191 input73:A input73:A 0
*END

*D_NET *42 0.0007362186727000002
*CONN
*P sel[0] I
*I input74:A I
*CAP
141 *42:1 0.0006858781437400002
142 input74:A 5.034052896000001e-05
143 *42:3 0
*RES
192 *42:1 *42:2 7.741071428571428
193 input74:A *42:3 0.4107142857142857
194 *42:3 *42:2 0
195 input74:A input74:A 0
*END

*D_NET *43 0.0011694706788200001
*CONN
*P sel[1] I
*I input75:A I
*CAP
144 input75:A 0.00024524937376
145 *43:2 0.0009242213050600002
146 *43:1 0
*RES
196 input75:A *43:1 2.464285714285714
197 *43:2 *43:3 10.473214285714285
198 *43:1 *43:2 0
199 input75:A input75:A 0
*END

*D_NET *44 0.0010090910554200001
*CONN
*P sel[2] I
*I input76:A I
*CAP
147 *44:1 0.0006858781437400002
148 *44:3 0.00032321291168
149 input76:A 0
*RES
200 *44:1 *44:2 7.741071428571428
201 *44:3 input76:A 3.2857142857142856
202 *44:3 *44:2 0
203 input76:A input76:A 0
*END

*D_NET *45 0.0010118443186
*CONN
*I _380_:A1 I
*I _292_:B I
*I _290_:X O
*CAP
150 *45:1 0.00024891568132000004
151 *45:3 0.0005181217564799999
152 _290_:X 0.00012830406688
153 *45:5 0.00011650281392
154 _292_:B 0
155 _380_:A1 0
156 *45:4 0
*RES
204 *45:1 *45:2 2.7321428571428568
205 *45:3 _292_:B 5.339285714285714
206 _290_:X *45:4 1.232142857142857
207 *45:5 *45:1 1.2142857142857142
208 _292_:B _292_:B 0
209 *45:3 *45:1 0
210 _380_:A1 _380_:A1 0
211 _380_:A1 *45:2 0
212 _290_:X _290_:X 0
213 *45:4 *45:5 0
*END

*D_NET *46 0.0006861055348400001
*CONN
*I _376_:A0 I
*I _292_:X O
*CAP
157 _292_:X 0.0005960852944
158 *46:2 9.002024044000002e-05
159 _376_:A0 0
160 *46:1 0
*RES
214 _292_:X *46:1 6.160714285714286
215 *46:2 *46:3 0.9107142857142857
216 _376_:A0 _376_:A0 0
217 _376_:A0 *46:2 0
218 *46:1 *46:3 0
219 _292_:X _292_:X 0
*END

*D_NET *47 0.0027056125705199998
*CONN
*I _374_:A0 I
*I _307_:B1 I
*I _299_:Y O
*CAP
161 _374_:A0 6.898398368e-05
162 *47:2 0.00019595053436
163 *47:4 0.00086895767712
164 *47:6 0.00022243310784000002
165 _307_:B1 4.017137184e-05
166 *47:8 0.0002062676048
167 *47:9 0.00110284829088
168 _299_:Y 0
169 *47:5 0
*RES
220 _374_:A0 *47:1 0.6071428571428571
221 *47:2 *47:3 2.1249999999999996
222 *47:4 *47:5 9.035714285714285
223 *47:6 *47:7 2.4285714285714284
224 _307_:B1 *47:8 0.30357142857142855
225 *47:8 *47:4 2.0535714285714284
226 *47:9 *47:1 11.5
227 _374_:A0 _374_:A0 0
228 _299_:Y _299_:Y 0
229 _299_:Y *47:2 0
230 *47:4 *47:3 0
231 *47:5 *47:6 0
232 *47:9 *47:7 0
233 _307_:B1 _307_:B1 0
*END

*D_NET *48 0.00204712963352
*CONN
*I _372_:A0 I
*I _307_:A3 I
*I _304_:B1 I
*I _297_:A I
*I _296_:X O
*CAP
170 _304_:B1 8.932229792e-05
171 *48:2 0.00024891568132000004
172 _296_:X 8.932229792e-05
173 *48:5 5.034052896000001e-05
174 *48:6 0.00035484597524
175 _372_:A0 0.00050914220224
176 *48:7 6.898398368e-05
177 *48:8 0.00063625666624
178 *48:1 0
179 *48:4 0
180 _307_:A3 0
181 _297_:A 0
*RES
234 _304_:B1 *48:1 0.8214285714285714
235 *48:2 *48:3 2.7321428571428568
236 _296_:X *48:4 0.8214285714285714
237 *48:5 _372_:A0 0.4107142857142857
238 *48:6 *48:2 3.946428571428571
239 _372_:A0 _307_:A3 4.517857142857142
240 _372_:A0 _372_:A0 0.6071428571428571
241 *48:7 _297_:A 0.6071428571428571
242 *48:8 *48:7 6.160714285714286
243 *48:8 *48:1 0.30357142857142855
244 _304_:B1 _304_:B1 0
245 *48:1 *48:2 0
246 *48:4 *48:3 0
247 _296_:X _296_:X 0
248 _372_:A0 _372_:A0 0
249 *48:5 *48:6 0
250 _307_:A3 _307_:A3 0
251 _297_:A _297_:A 0
*END

*D_NET *49 0.00037425138316
*CONN
*I _370_:A0 I
*I _291_:X O
*CAP
182 *49:1 0.00028423114272
183 *49:2 9.002024044000002e-05
184 _370_:A0 0
185 _291_:X 0
*RES
252 *49:1 _370_:A0 2.875
253 *49:2 *49:3 0.9107142857142857
254 _370_:A0 _370_:A0 0
255 *49:1 *49:2 0
256 _291_:X _291_:X 0
257 _291_:X *49:3 0
*END

*D_NET *50 0.00245158203028
*CONN
*I _368_:A0 I
*I _302_:Y O
*CAP
186 _368_:A0 0.0002062676048
187 *50:2 0.0014141489144400001
188 *50:4 0.0007909941392
189 _302_:Y 4.017137184e-05
190 *50:1 0
191 *50:5 0
*RES
258 _368_:A0 *50:1 2.0535714285714284
259 *50:2 *50:3 16.08928571428571
260 *50:4 *50:5 8.214285714285714
261 _302_:Y *50:4 0.30357142857142855
262 _368_:A0 _368_:A0 0
263 *50:1 *50:2 0
264 *50:5 *50:3 0
265 _302_:Y _302_:Y 0
*END

*D_NET *51 0.0003621946806399999
*CONN
*I _366_:A0 I
*I _304_:X O
*CAP
192 _366_:A0 0.0003621946806399999
193 _304_:X 0
*RES
266 _366_:A0 _304_:X 3.6964285714285707
267 _304_:X _304_:X 0
268 _366_:A0 _366_:A0 0
*END

*D_NET *52 0.00090793944608
*CONN
*I _364_:A0 I
*I _293_:X O
*CAP
194 _364_:A0 0.00090793944608
195 _293_:X 0
*RES
269 _364_:A0 _293_:X 9.446428571428571
270 _293_:X _293_:X 0
271 _364_:A0 _364_:A0 0
*END

*D_NET *53 0.00161065297692
*CONN
*I _362_:A0 I
*I _305_:X O
*CAP
196 *53:1 0.00019595053436
197 _362_:A0 0.0014147024425599998
198 _305_:X 0
199 *53:3 0
*RES
272 *53:1 *53:2 2.1249999999999996
273 _362_:A0 *53:3 14.785714285714283
274 _362_:A0 _362_:A0 0
275 _305_:X _305_:X 0
276 _305_:X *53:1 0
277 *53:3 *53:2 0
*END

*D_NET *54 0.00216741275532
*CONN
*I _360_:A0 I
*I _303_:X O
*CAP
200 *54:1 9.002024044000002e-05
201 _360_:A0 0.00207739251488
202 *54:3 0
203 _303_:X 0
*RES
278 *54:1 *54:2 0.9107142857142857
279 _360_:A0 *54:3 21.76785714285714
280 _360_:A0 _360_:A0 0
281 *54:3 *54:1 0
282 _303_:X _303_:X 0
283 _303_:X *54:2 0
*END

*D_NET *55 0.005393930069040001
*CONN
*I _358_:A0 I
*I _301_:Y O
*CAP
204 *55:1 0.00125447457434
205 *55:3 0.0015781645807800004
206 *55:5 4.017137184e-05
207 *55:7 0.00097692342976
208 *55:9 0.00079218374208
209 _301_:Y 0.00075201237024
210 _358_:A0 0
*RES
284 *55:1 *55:2 14.258928571428571
285 *55:3 *55:2 2.0535714285714284
286 *55:3 *55:4 15.794642857142858
287 *55:5 *55:6 0.30357142857142855
288 *55:7 *55:6 9.446428571428571
289 *55:7 *55:8 0.6071428571428571
290 *55:9 *55:10 0.30357142857142855
291 _301_:Y *55:10 7.803571428571428
292 *55:9 *55:8 7.803571428571428
293 _358_:A0 _358_:A0 0
294 _358_:A0 *55:1 0
295 *55:5 *55:4 0
296 _301_:Y _301_:Y 0
*END

*D_NET *56 0.0016623666532400003
*CONN
*I _356_:A0 I
*I _306_:X O
*CAP
211 _356_:A0 8.932229792e-05
212 *56:2 0.0015730443553200002
213 *56:1 0
214 _306_:X 0
*RES
297 _356_:A0 *56:1 0.8214285714285714
298 *56:2 *56:3 17.91071428571428
299 _356_:A0 _356_:A0 0
300 *56:1 *56:2 0
301 _306_:X _306_:X 0
302 _306_:X *56:3 0
*END

*D_NET *57 0.00058497153552
*CONN
*I _354_:A0 I
*I _307_:X O
*CAP
215 _354_:A0 8.932229792e-05
216 *57:2 0.00032836340175999997
217 *57:4 0.00016728583584
218 *57:1 0
219 _307_:X 0
*RES
303 _354_:A0 *57:1 0.8214285714285714
304 *57:2 *57:3 3.642857142857143
305 *57:4 _307_:X 1.6428571428571428
306 _354_:A0 _354_:A0 0
307 *57:1 *57:2 0
308 *57:4 *57:3 0
309 _307_:X _307_:X 0
*END

*D_NET *58 0.0029597304633599995
*CONN
*I _378_:A0 I
*I _303_:B1 I
*I _300_:Y O
*CAP
220 *58:1 0.0005582931283199999
221 *58:3 0.00130821862052
222 *58:5 0.00055710352544
223 _300_:Y 0.00012830406688
224 *58:4 0.0004078111222
225 _303_:B1 0
226 *58:2 0
227 _378_:A0 0
228 *58:6 0
*RES
310 *58:1 _303_:B1 0.30357142857142855
311 *58:1 *58:2 5.339285714285714
312 *58:3 *58:4 14.874999999999998
313 *58:5 _378_:A0 5.75
314 _300_:Y *58:6 1.232142857142857
315 *58:4 *58:7 4.553571428571428
316 _303_:B1 _303_:B1 0
317 *58:2 *58:4 0
318 *58:5 *58:3 0
319 _378_:A0 _378_:A0 0
320 _300_:Y _300_:Y 0
321 *58:6 *58:7 0
*END

*D_NET *59 0.00266225301524
*CONN
*I _377_:A0 I
*I _308_:X O
*CAP
229 _377_:A0 0.0009469212150399999
230 *59:2 0.00162600950228
231 *59:4 8.932229792e-05
232 *59:1 0
233 _308_:X 0
*RES
322 _377_:A0 *59:1 9.857142857142856
323 *59:2 *59:3 18.51785714285714
324 *59:4 _308_:X 0.8214285714285714
325 _377_:A0 _377_:A0 0
326 *59:1 *59:2 0
327 *59:4 *59:3 0
328 _308_:X _308_:X 0
*END

*D_NET *60 0.00132414096324
*CONN
*I _380_:A0 I
*I _313_:B I
*I _309_:X O
*CAP
234 *60:1 0.00024891568132000004
235 *60:3 0.0004791399875199999
236 _309_:X 0.0005960852944
237 _313_:B 0
238 _380_:A0 0
239 *60:4 0
*RES
329 *60:1 *60:2 2.7321428571428568
330 *60:3 _380_:A0 4.928571428571428
331 _309_:X *60:4 6.160714285714286
332 _313_:B _313_:B 0
333 _313_:B *60:1 0
334 *60:3 *60:2 0
335 _380_:A0 _380_:A0 0
336 _309_:X _309_:X 0
337 *60:4 *60:5 0
*END

*D_NET *61 0.0037548829816000003
*CONN
*I _375_:A0 I
*I _316_:X O
*CAP
240 *61:1 0.0015995269288
241 _316_:X 0.0021553560528000002
242 _375_:A0 0
243 *61:3 0
*RES
338 *61:1 *61:2 18.21428571428571
339 _316_:X *61:3 22.58928571428571
340 _375_:A0 _375_:A0 0
341 _375_:A0 *61:1 0
342 *61:3 *61:2 0
343 _316_:X _316_:X 0
*END

*D_NET *62 0.0021702836214400004
*CONN
*I _373_:A0 I
*I _317_:X O
*CAP
244 *62:1 0.00085997812288
245 *62:3 0.00024524937376
246 *62:4 4.017137184e-05
247 _317_:X 0.0010248847529600001
248 _373_:A0 0
*RES
344 *62:1 _373_:A0 8.214285714285714
345 *62:1 *62:2 0.6071428571428571
346 *62:3 *62:2 2.464285714285714
347 *62:4 *62:3 0.30357142857142855
348 _317_:X *62:4 10.678571428571429
349 _373_:A0 _373_:A0 0
350 _317_:X _317_:X 0
*END

*D_NET *63 0.00035484597524
*CONN
*I _380_:X O
*I _318_:A I
*CAP
249 *63:1 0.00035484597524
250 _318_:A 0
251 _380_:X 0
*RES
351 *63:1 *63:2 3.946428571428571
352 _318_:A _318_:A 0
353 _318_:A *63:1 0
354 _380_:X _380_:X 0
355 _380_:X *63:2 0
*END

*D_NET *64 0.00017934253836
*CONN
*I _371_:A0 I
*I _318_:X O
*CAP
252 *64:1 9.002024044000002e-05
253 _318_:X 8.932229792e-05
254 *64:3 0
255 _371_:A0 0
*RES
356 *64:1 *64:2 0.9107142857142857
357 _318_:X *64:3 0.8214285714285714
358 *64:3 *64:1 0
359 _371_:A0 _371_:A0 0
360 _371_:A0 *64:2 0
361 _318_:X _318_:X 0
*END

*D_NET *65 0.0006030637140399999
*CONN
*I _369_:A0 I
*I _319_:X O
*CAP
256 *65:1 8.932229792e-05
257 *65:2 0.00051374141612
258 _369_:A0 0
259 _319_:X 0
*RES
362 *65:1 _369_:A0 0.8214285714285714
363 *65:2 *65:3 5.767857142857142
364 _369_:A0 _369_:A0 0
365 *65:1 *65:2 0
366 _319_:X _319_:X 0
367 _319_:X *65:3 0
*END

*D_NET *66 0.004676470476280001
*CONN
*I _367_:A0 I
*I _319_:B1 I
*I _317_:B1 I
*I _312_:B1 I
*I _310_:Y O
*CAP
260 *66:1 0.00016728583584
261 *66:2 0.00056670656308
262 *66:4 0.00024524937376
263 *66:6 0.0002753982548
264 _367_:A0 0.00044015821855999997
265 *66:9 0.00026508243136
266 *66:11 0.00024524937376
267 *66:12 4.017137184e-05
268 *66:13 0.00016847543872000001
269 *66:15 0.00075201237024
270 *66:16 0.00016946796088000002
271 *66:17 0.00024891568132000004
272 _319_:B1 0.0003621946806399999
273 *66:20 4.017137184e-05
274 *66:21 5.034052896000001e-05
275 *66:22 0.00059318913656
276 *66:18 4.640188412000001e-05
277 _310_:Y 0
278 *66:5 0
279 *66:8 0
280 _312_:B1 0
281 *66:19 0
282 _317_:B1 0
*RES
368 *66:1 _310_:Y 1.6428571428571428
369 *66:2 *66:3 6.374999999999999