*SPEF "IEEE 1481-1998"
*DESIGN "digital_pll"
*DATE "Thu Jun 17 00:36:57 2021"
*VENDOR "AUC CSCE Department"
*PROGRAM "SPEF Extractor"
*VERSION "1.0"
*DESIGN_FLOW "PIN_CAP NONE"
*DIVIDER /
*DELIMITER :
*BUS_DELIMITER []
*T_UNIT 1.00000 NS
*C_UNIT 1.00000 PF
*R_UNIT 1.00000 OHM
*L_UNIT 1.00000 HENRY


*NAME_MAP
*0 clockp[0]
*1 clockp[1]
*2 div[0]
*3 div[1]
*4 div[2]
*5 div[3]
*6 div[4]
*7 enable
*8 osc
*9 resetb
*10 _000_
*11 _001_
*12 _002_
*13 _003_
*14 _004_
*15 _005_
*16 _006_
*17 _007_
*18 _008_
*19 _009_
*20 _010_
*21 _011_
*22 _012_
*23 _013_
*24 _014_
*25 _015_
*26 _016_
*27 _017_
*28 _018_
*29 _019_
*30 _020_
*31 _021_
*32 _022_
*33 _023_
*34 _024_
*35 _025_
*36 _026_
*37 _027_
*38 _028_
*39 _029_
*40 _030_
*41 _031_
*42 _032_
*43 _033_
*44 _034_
*45 _035_
*46 _036_
*47 _037_
*48 _038_
*49 _039_
*50 _040_
*51 _041_
*52 _042_
*53 _043_
*54 _044_
*55 _045_
*56 _046_
*57 _047_
*58 _048_
*59 _049_
*60 _050_
*61 _051_
*62 _052_
*63 _053_
*64 _054_
*65 _055_
*66 _056_
*67 _057_
*68 _058_
*69 _059_
*70 _060_
*71 _061_
*72 _062_
*73 _063_
*74 _064_
*75 _065_
*76 _066_
*77 _067_
*78 _068_
*79 _069_
*80 _070_
*81 _071_
*82 _072_
*83 _073_
*84 _074_
*85 _075_
*86 _076_
*87 _077_
*88 _078_
*89 _079_
*90 _080_
*91 _081_
*92 _082_
*93 _083_
*94 _084_
*95 _085_
*96 _086_
*97 _087_
*98 _088_
*99 _089_
*100 _090_
*101 _091_
*102 _092_
*103 _093_
*104 _094_
*105 _095_
*106 _096_
*107 _097_
*108 _098_
*109 _099_
*110 _100_
*111 _101_
*112 _102_
*113 _103_
*114 _104_
*115 _105_
*116 _106_
*117 _107_
*118 _108_
*119 _109_
*120 _110_
*121 _111_
*122 _112_
*123 _113_
*124 _114_
*125 _115_
*126 _116_
*127 _117_
*128 _118_
*129 _119_
*130 _120_
*131 _121_
*132 _122_
*133 _123_
*134 _124_
*135 _125_
*136 _126_
*137 _127_
*138 _128_
*139 _129_
*140 _130_
*141 _131_
*142 _132_
*143 _133_
*144 _134_
*145 _135_
*146 _136_
*147 _137_
*148 pll_control.clock
*149 pll_control.count0\[0\]
*150 pll_control.count0\[1\]
*151 pll_control.count0\[2\]
*152 pll_control.count0\[3\]
*153 pll_control.count0\[4\]
*154 pll_control.count1\[0\]
*155 pll_control.count1\[1\]
*156 pll_control.count1\[2\]
*157 pll_control.count1\[3\]
*158 pll_control.count1\[4\]
*159 pll_control.oscbuf\[0\]
*160 pll_control.oscbuf\[1\]
*161 pll_control.oscbuf\[2\]
*162 pll_control.prep\[0\]
*163 pll_control.prep\[1\]
*164 pll_control.prep\[2\]
*165 pll_control.reset
*166 pll_control.tint\[0\]
*167 pll_control.tint\[1\]
*168 pll_control.tint\[2\]
*169 pll_control.tint\[3\]
*170 pll_control.tint\[4\]
*171 pll_control.trim\[0\]
*172 pll_control.trim\[10\]
*173 pll_control.trim\[11\]
*174 pll_control.trim\[12\]
*175 pll_control.trim\[13\]
*176 pll_control.trim\[14\]
*177 pll_control.trim\[15\]
*178 pll_control.trim\[16\]
*179 pll_control.trim\[17\]
*180 pll_control.trim\[18\]
*181 pll_control.trim\[19\]
*182 pll_control.trim\[1\]
*183 pll_control.trim\[20\]
*184 pll_control.trim\[21\]
*185 pll_control.trim\[22\]
*186 pll_control.trim\[23\]
*187 pll_control.trim\[24\]
*188 pll_control.trim\[25\]
*189 pll_control.trim\[2\]
*190 pll_control.trim\[3\]
*191 pll_control.trim\[4\]
*192 pll_control.trim\[5\]
*193 pll_control.trim\[6\]
*194 pll_control.trim\[7\]
*195 pll_control.trim\[8\]
*196 pll_control.trim\[9\]
*197 pll_control.tval\[0\]
*198 pll_control.tval\[1\]
*199 ringosc.c\[0\]
*200 ringosc.c\[1\]
*201 ringosc.dstage\[0\].id.d0
*202 ringosc.dstage\[0\].id.d1
*203 ringosc.dstage\[0\].id.d2
*204 ringosc.dstage\[0\].id.in
*205 ringosc.dstage\[0\].id.out
*206 ringosc.dstage\[0\].id.ts
*207 ringosc.dstage\[10\].id.d0
*208 ringosc.dstage\[10\].id.d1
*209 ringosc.dstage\[10\].id.d2
*210 ringosc.dstage\[10\].id.in
*211 ringosc.dstage\[10\].id.out
*212 ringosc.dstage\[10\].id.ts
*213 ringosc.dstage\[11\].id.d0
*214 ringosc.dstage\[11\].id.d1
*215 ringosc.dstage\[11\].id.d2
*216 ringosc.dstage\[11\].id.out
*217 ringosc.dstage\[11\].id.ts
*218 ringosc.dstage\[1\].id.d0
*219 ringosc.dstage\[1\].id.d1
*220 ringosc.dstage\[1\].id.d2
*221 ringosc.dstage\[1\].id.out
*222 ringosc.dstage\[1\].id.ts
*223 ringosc.dstage\[2\].id.d0
*224 ringosc.dstage\[2\].id.d1
*225 ringosc.dstage\[2\].id.d2
*226 ringosc.dstage\[2\].id.out
*227 ringosc.dstage\[2\].id.ts
*228 ringosc.dstage\[3\].id.d0
*229 ringosc.dstage\[3\].id.d1
*230 ringosc.dstage\[3\].id.d2
*231 ringosc.dstage\[3\].id.out
*232 ringosc.dstage\[3\].id.ts
*233 ringosc.dstage\[4\].id.d0
*234 ringosc.dstage\[4\].id.d1
*235 ringosc.dstage\[4\].id.d2
*236 ringosc.dstage\[4\].id.out
*237 ringosc.dstage\[4\].id.ts
*238 ringosc.dstage\[5\].id.d0
*239 ringosc.dstage\[5\].id.d1
*240 ringosc.dstage\[5\].id.d2
*241 ringosc.dstage\[5\].id.out
*242 ringosc.dstage\[5\].id.ts
*243 ringosc.dstage\[6\].id.d0
*244 ringosc.dstage\[6\].id.d1
*245 ringosc.dstage\[6\].id.d2
*246 ringosc.dstage\[6\].id.out
*247 ringosc.dstage\[6\].id.ts
*248 ringosc.dstage\[7\].id.d0
*249 ringosc.dstage\[7\].id.d1
*250 ringosc.dstage\[7\].id.d2
*251 ringosc.dstage\[7\].id.out
*252 ringosc.dstage\[7\].id.ts
*253 ringosc.dstage\[8\].id.d0
*254 ringosc.dstage\[8\].id.d1
*255 ringosc.dstage\[8\].id.d2
*256 ringosc.dstage\[8\].id.out
*257 ringosc.dstage\[8\].id.ts
*258 ringosc.dstage\[9\].id.d0
*259 ringosc.dstage\[9\].id.d1
*260 ringosc.dstage\[9\].id.d2
*261 ringosc.dstage\[9\].id.ts
*262 ringosc.iss.ctrl0
*263 ringosc.iss.d0
*264 ringosc.iss.d1
*265 ringosc.iss.d2
*266 ringosc.iss.one
*267 net1
*268 net2
*269 net3
*270 net4
*271 net5
*272 net6
*273 net7
*274 net8
*275 net9
*276 net10

*D_NET *0 0.00063291299678
*CONN
*P clockp[0] O
*I output9:X O
*CAP
0 *0:1 0.00063291299678
1 output9:X 0
*RES
0 *0:1 *0:2 7.133928571428571
1 output9:X output9:X 0
2 output9:X *0:2 0
*END

*D_NET *1 0.0009832812944600001
*CONN
*P clockp[1] O
*I output10:X O
*CAP
2 output10:X 8.932229792e-05
3 *1:2 0.00034160468850000003
4 *1:4 0.00055235430804
5 *1:1 0
*RES
3 output10:X *1:1 0.8214285714285714
4 *1:2 *1:3 3.7946428571428568
5 *1:4 *1:3 1.232142857142857
6 *1:4 *1:5 4.857142857142857
7 output10:X output10:X 0
8 *1:1 *1:2 0
*END

*D_NET *2 0.0009076133090600001
*CONN
*P div[0] I
*I input1:A I
*CAP
6 *2:1 8.932229792e-05
7 *2:2 0.00081829101114
8 input1:A 0
*RES
9 *2:1 input1:A 0.8214285714285714
10 *2:2 *2:3 9.25892857142857
11 input1:A input1:A 0
12 *2:1 *2:2 0
*END

*D_NET *3 0.0012724326077000001
*CONN
*P div[1] I
*I input2:A I
*CAP
9 *3:1 0.0008712561581000002
10 *3:3 0.00040117644959999997
11 input2:A 0
*RES
13 *3:1 *3:2 9.866071428571429
14 *3:3 input2:A 4.107142857142857
15 *3:3 *3:2 0
16 input2:A input2:A 0
*END

*D_NET *4 0.00119298488726
*CONN
*P div[2] I
*I input3:A I
*CAP
12 input3:A 0.00040117644959999997
13 *4:2 0.0007918084376600001
14 *4:1 0
*RES
17 input3:A *4:1 4.107142857142857
18 *4:2 *4:3 8.95535714285714
19 input3:A input3:A 0
20 *4:1 *4:2 0
*END

*D_NET *5 0.00059531518628
*CONN
*P div[3] I
*I input4:A I
*CAP
15 *5:1 0.0003596407917
16 *5:3 0.00023567439458000006
17 input4:A 0
*RES
21 *5:1 *5:2 0.6125666666666667
22 *5:3 *5:4 2.580357142857143
23 *5:3 *5:2 0
24 input4:A input4:A 0
25 input4:A *5:4 0
*END

*D_NET *6 0.0008071757741199999
*CONN
*P div[4] I
*I input5:A I
*CAP
18 *6:1 0.0003596407917
19 *6:3 0.00044753498242
20 *6:4 0
21 input5:A 0
*RES
26 *6:1 *6:2 0.6125666666666667
27 *6:3 *6:4 5.008928571428571
28 *6:4 *6:2 0
29 input5:A input5:A 0
30 input5:A *6:3 0
*END

*D_NET *7 0.0006858781437400002
*CONN
*P enable I
*I input6:A I
*CAP
22 *7:1 0.0006858781437400002
23 input6:A 0
*RES
31 *7:1 *7:2 7.741071428571428
32 input6:A input6:A 0
33 input6:A *7:2 0
*END

*D_NET *8 0.00074127586044
*CONN
*P osc I
*I input7:A I
*CAP
24 *8:1 0.00042105240893999997
25 *8:3 0.0003202234515
26 input7:A 0
*RES
34 *8:1 *8:2 4.705357142857142
35 *8:3 *8:4 0.5405000000000001
36 input7:A input7:A 0
37 input7:A *8:2 0
38 *8:1 *8:3 0
*END

*D_NET *9 0.0003970024052
*CONN
*P resetb I
*I input8:A I
*CAP
27 *9:1 7.67789537e-05
28 *9:3 0.0003202234515
29 input8:A 0
30 *9:2 0
*RES
39 *9:1 *9:2 0.7589285714285713
40 *9:3 *9:4 0.5405000000000001
41 input8:A input8:A 0
42 input8:A *9:1 0
43 *9:2 *9:3 0
*END

*D_NET *10 0.00247346373176
*CONN
*I _303_:A1 I
*I _278_:C1 I
*I _267_:C1 I
*I _206_:B I
*I _205_:X O
*CAP
31 *10:1 0.00016728583584
32 *10:2 9.051190080000001e-05
33 *10:3 0.0010963580326800002
34 _206_:B 0.00012830406688
35 *10:6 0.00032321291168
36 _278_:C1 4.017137184e-05
37 *10:8 5.034052896000001e-05
38 *10:9 0.00014298538739999998
39 *10:4 0.00043429369568000003
40 _303_:A1 0
41 _205_:X 0
42 _267_:C1 0
43 *10:5 0
*RES
44 *10:1 _303_:A1 1.6428571428571428
45 *10:2 _267_:C1 0.4107142857142857
46 *10:3 *10:4 12.44642857142857
47 _206_:B *10:5 1.232142857142857
48 *10:6 *10:7 3.2857142857142856
49 *10:2 *10:7 0.30357142857142855
50 _278_:C1 *10:8 0.30357142857142855
51 *10:8 *10:6 0.4107142857142857
52 *10:9 *10:10 1.5178571428571426
53 *10:4 *10:11 4.857142857142857
54 *10:1 *10:11 0
55 _303_:A1 _303_:A1 0
56 _205_:X _205_:X 0
57 _205_:X *10:10 0
58 _267_:C1 _267_:C1 0
59 *10:2 *10:4 0
60 *10:5 *10:3 0
61 _206_:B _206_:B 0
62 *10:6 *10:9 0
63 _278_:C1 _278_:C1 0
*END

*D_NET *11 0.0032963721253600003
*CONN
*I _303_:A0 I
*I _266_:B I
*I _198_:C I
*I _197_:X O
*CAP
44 *11:1 0.00012830406688
45 *11:2 0.00025559370522000005
46 *11:5 0.00040117644959999997
47 _266_:B 4.017137184e-05
48 *11:6 0.00038132854871999994
49 *11:8 0.00114183005984
50 _198_:C 4.017137184e-05
51 _197_:X 0.00063506706336
52 *11:7 9.002024044000002e-05
53 *11:12 0.00018270924762000003
54 _303_:A0 0
55 *11:9 0
56 *11:10 0
*RES
64 *11:1 _266_:B 1.232142857142857
65 *11:2 *11:3 2.276785714285714
66 *11:2 *11:4 0.4107142857142857
67 *11:5 _303_:A0 4.107142857142857
68 _266_:B *11:5 0.30357142857142855
69 *11:6 *11:7 4.249999999999999
70 *11:8 *11:9 11.910714285714285
71 _198_:C *11:8 0.30357142857142855
72 _197_:X *11:10 6.571428571428571
73 *11:7 *11:11 0.9107142857142857
74 *11:12 *11:4 1.9732142857142856
75 _266_:B _266_:B 0
76 *11:1 *11:3 0
77 _303_:A0 _303_:A0 0
78 _197_:X _197_:X 0
79 _197_:X *11:7 0
80 *11:9 *11:6 0
81 _198_:C _198_:C 0
82 *11:10 *11:12 0
83 _197_:X *11:11 0
*END

*D_NET *12 9.051190080000001e-05
*CONN
*I _303_:X O
*I _273_:A I
*CAP
57 *12:1 4.017137184e-05
58 _303_:X 5.034052896000001e-05
59 _273_:A 0
*RES
84 *12:1 _273_:A 0.30357142857142855
85 _303_:X *12:1 0.4107142857142857
86 _273_:A _273_:A 0
87 _303_:X _303_:X 0
*END

*D_NET *13 0.00016684334288000002
*CONN
*I _304_:RESET_B I
*I _299_:X O
*CAP
60 *13:1 5.034052896000001e-05
61 *13:2 0.00011650281392
62 _299_:X 0
63 _304_:RESET_B 0
*RES
88 *13:1 _299_:X 0.4107142857142857
89 *13:2 *13:3 1.2142857142857142
90 _299_:X _299_:X 0
91 *13:1 *13:2 0
92 _304_:RESET_B *13:3 0
*END

*D_NET *14 0.00032836340175999997
*CONN
*I _305_:RESET_B I
*I _298_:X O
*CAP
64 *14:1 0.00032836340175999997
65 _298_:X 0
66 _305_:RESET_B 0
*RES
93 *14:1 *14:2 3.642857142857143
94 _298_:X _298_:X 0
95 _298_:X *14:1 0
96 _305_:RESET_B *14:2 0
*END

*D_NET *15 0.00028378864976
*CONN
*I _306_:RESET_B I
*I _297_:X O
*CAP
67 *15:1 0.00011650281392
68 *15:3 0.00016728583584
69 _297_:X 0
*RES
97 *15:1 *15:2 1.2142857142857142
98 *15:3 _306_:RESET_B 1.6428571428571428
99 _297_:X _297_:X 0
100 _297_:X *15:1 0
101 *15:3 *15:2 0
*END

*D_NET *16 0.00016684334288000002
*CONN
*I _307_:RESET_B I
*I _296_:X O
*CAP
70 *16:1 5.034052896000001e-05
71 *16:2 0.00011650281392
72 _307_:RESET_B 0
73 _296_:X 0
*RES
102 *16:1 _296_:X 0.4107142857142857
103 *16:2 *16:3 1.2142857142857142
104 _307_:RESET_B *16:2 0
105 *16:1 *16:3 0
106 _296_:X _296_:X 0
*END

*D_NET *17 0.00016684334288000002
*CONN
*I _308_:RESET_B I
*I _295_:X O
*CAP
74 _295_:X 5.034052896000001e-05
75 *17:2 0.00011650281392
76 *17:1 0
77 _308_:RESET_B 0
*RES
107 _295_:X *17:1 0.4107142857142857
108 *17:2 *17:3 1.2142857142857142
109 _295_:X _295_:X 0
110 *17:1 *17:2 0
111 _308_:RESET_B *17:3 0
*END

*D_NET *18 0.00016684334288000002
*CONN
*I _309_:RESET_B I
*I _294_:X O
*CAP
78 *18:1 5.034052896000001e-05
79 *18:2 0.00011650281392
80 _294_:X 0
81 _309_:RESET_B 0
*RES
112 *18:1 _294_:X 0.4107142857142857
113 *18:2 *18:3 1.2142857142857142
114 _294_:X _294_:X 0
115 *18:1 *18:3 0
116 _309_:RESET_B *18:2 0
*END

*D_NET *19 0.00011650281392
*CONN
*I _310_:RESET_B I
*I _293_:X O
*CAP
82 *19:1 0.00011650281392
83 _293_:X 0
84 _310_:RESET_B 0
*RES
117 *19:1 *19:2 1.2142857142857142
118 _293_:X _293_:X 0
119 _293_:X *19:2 0
120 _310_:RESET_B *19:1 0
*END

*D_NET *20 0.00019595053436
*CONN
*I _311_:RESET_B I
*I _292_:X O
*CAP
85 *20:1 0.00019595053436
86 _292_:X 0
87 _311_:RESET_B 0
*RES
121 *20:1 *20:2 2.1249999999999996
122 _292_:X _292_:X 0
123 _292_:X *20:2 0
124 _311_:RESET_B *20:1 0
*END

*D_NET *21 0.00011650281392
*CONN
*I _312_:RESET_B I
*I _291_:X O
*CAP
88 *21:1 0.00011650281392
89 _291_:X 0
90 _312_:RESET_B 0
*RES
125 *21:1 *21:2 1.2142857142857142
126 _291_:X _291_:X 0
127 _291_:X *21:2 0
128 _312_:RESET_B *21:1 0
*END

*D_NET *22 0.00019595053436
*CONN
*I _313_:RESET_B I
*I _290_:X O
*CAP
91 *22:1 0.00019595053436
92 _290_:X 0
93 _313_:RESET_B 0
*RES
129 *22:1 *22:2 2.1249999999999996
130 _290_:X _290_:X 0
131 _290_:X *22:1 0
132 _313_:RESET_B *22:2 0
*END

*D_NET *23 0.00016684334288000002
*CONN
*I _314_:RESET_B I
*I _289_:X O
*CAP
94 _289_:X 5.034052896000001e-05
95 *23:2 0.00011650281392
96 *23:1 0
97 _314_:RESET_B 0
*RES
133 _289_:X *23:1 0.4107142857142857
134 *23:2 *23:3 1.2142857142857142
135 _289_:X _289_:X 0
136 *23:1 *23:3 0
137 _314_:RESET_B *23:2 0
*END

*D_NET *24 0.00041357689916
*CONN
*I _315_:RESET_B I
*I _288_:X O
*CAP
98 _288_:X 0.00012830406688
99 *24:2 0.00019595053436
100 *24:4 8.932229792e-05
101 *24:1 0
*RES
138 _288_:X *24:1 1.232142857142857
139 *24:2 *24:3 2.1249999999999996
140 *24:4 _315_:RESET_B 0.8214285714285714
141 _288_:X _288_:X 0
142 *24:1 *24:3 0
143 *24:4 *24:2 0
*END

*D_NET *25 0.00024629106332
*CONN
*I _316_:RESET_B I
*I _287_:X O
*CAP
102 _287_:X 5.034052896000001e-05
103 *25:2 0.00019595053436
104 *25:1 0
105 _316_:RESET_B 0
*RES
144 _287_:X *25:1 0.4107142857142857
145 *25:2 *25:3 2.1249999999999996
146 _287_:X _287_:X 0
147 *25:1 *25:3 0
148 _316_:RESET_B *25:2 0
*END

*D_NET *26 0.00016684334288000002
*CONN
*I _317_:RESET_B I
*I _286_:X O
*CAP
106 *26:1 5.034052896000001e-05
107 *26:2 0.00011650281392
108 _286_:X 0
109 _317_:RESET_B 0
*RES
149 *26:1 _286_:X 0.4107142857142857
150 *26:2 *26:3 1.2142857142857142
151 _286_:X _286_:X 0
152 *26:1 *26:3 0
153 _317_:RESET_B *26:2 0
*END

*D_NET *27 0.00014298538739999998
*CONN
*I _318_:RESET_B I
*I _285_:X O
*CAP
110 *27:1 0.00014298538739999998
111 _285_:X 0
112 _318_:RESET_B 0
*RES
154 *27:1 *27:2 1.5178571428571426
155 _285_:X _285_:X 0
156 _285_:X *27:1 0
157 _318_:RESET_B *27:2 0
*END

*D_NET *28 0.00024629106332
*CONN
*I _319_:RESET_B I
*I _284_:X O
*CAP
113 *28:1 5.034052896000001e-05
114 *28:2 0.00019595053436
115 _284_:X 0
116 _319_:RESET_B 0
*RES
158 *28:1 _284_:X 0.4107142857142857
159 *28:2 *28:3 2.1249999999999996
160 _284_:X _284_:X 0
161 *28:1 *28:3 0
162 _319_:RESET_B *28:2 0
*END

*D_NET *29 0.00011650281392
*CONN
*I _320_:RESET_B I
*I _283_:X O
*CAP
117 *29:1 0.00011650281392
118 _283_:X 0
119 _320_:RESET_B 0
*RES
163 *29:1 *29:2 1.2142857142857142
164 _283_:X _283_:X 0
165 _283_:X *29:2 0
166 _320_:RESET_B *29:1 0
*END

*D_NET *30 0.00016684334288000002
*CONN
*I _321_:RESET_B I
*I _282_:X O
*CAP
120 _282_:X 5.034052896000001e-05
121 *30:2 0.00011650281392
122 *30:1 0
123 _321_:RESET_B 0
*RES
167 _282_:X *30:1 0.4107142857142857
168 *30:2 *30:3 1.2142857142857142
169 _282_:X _282_:X 0
170 *30:1 *30:3 0
171 _321_:RESET_B *30:2 0
*END

*D_NET *31 0.00011650281392
*CONN
*I _322_:RESET_B I
*I _281_:X O
*CAP
124 *31:1 0.00011650281392
125 _281_:X 0
126 _322_:RESET_B 0
*RES
172 *31:1 *31:2 1.2142857142857142
173 _281_:X _281_:X 0
174 _281_:X *31:1 0
175 _322_:RESET_B *31:2 0
*END

*D_NET *32 0.00016684334288000002
*CONN
*I _323_:RESET_B I
*I _280_:X O
*CAP
127 *32:1 5.034052896000001e-05
128 *32:2 0.00011650281392
129 _280_:X 0
130 _323_:RESET_B 0
*RES
176 *32:1 _280_:X 0.4107142857142857
177 *32:2 *32:3 1.2142857142857142
178 _280_:X _280_:X 0
179 *32:1 *32:3 0
180 _323_:RESET_B *32:2 0
*END

*D_NET *33 0.00053611518908
*CONN
*I _324_:RESET_B I
*I _279_:X O
*CAP
131 _279_:X 0.00012830406688
132 *33:2 0.0004078111222
133 *33:1 0
134 _324_:RESET_B 0
*RES
181 _279_:X *33:1 1.232142857142857
182 *33:2 *33:3 4.553571428571428
183 _279_:X _279_:X 0
184 *33:1 *33:2 0
185 _324_:RESET_B *33:3 0
*END

*D_NET *34 0.022067287133639996
*CONN
*I _325_:RESET_B I
*I _301_:A I
*I _299_:A I
*I _298_:A I
*I _297_:A I
*I _296_:A I
*I _295_:A I
*I _294_:A I
*I _293_:A I
*I _292_:A I
*I _291_:A I
*I _290_:A I
*I _289_:A I
*I _288_:A I
*I _287_:A I
*I _286_:A I
*I _285_:A I
*I _284_:A I
*I _283_:A I
*I _282_:A I
*I _281_:A I
*I _280_:A I
*I _279_:A I
*I _156_:Y O
*CAP
135 *34:1 8.932229792e-05
136 *34:2 5.034052896000001e-05
137 *34:3 0.00061967171004
138 *34:5 0.00012830406688
139 *34:6 0.0006726368570000002
140 *34:7 0.0010260743558400001
141 *34:8 5.034052896000001e-05
142 *34:9 0.00043429369568000003
143 *34:11 0.00016728583584
144 *34:10 0.0008580148713600001
145 *34:12 0.0006726368570000002
146 *34:4 0.00128173604704
147 _295_:A 0.00071303060128
148 *34:14 0.00044015821855999997
149 *34:15 0.00055710352544
150 *34:16 0.00011883951157999999
151 *34:18 0.00044015821855999997
152 *34:19 6.898398368e-05
153 *34:20 0.00035250927758
154 *34:17 4.640188412000001e-05
155 *34:21 0.00077856715092
156 *34:23 0.00028423114272
157 _297_:A 4.017137184e-05
158 *34:25 0.0003621946806399999
159 *34:26 0.00016946796088000002
160 *34:28 0.00014298538739999998
161 _287_:A 0.00034270379616
162 _285_:A 5.034052896000001e-05
163 *34:32 0.0002753982548
164 *34:34 0.0007909941392
165 *34:36 0.0001536128654
166 *34:30 4.017137184e-05
167 *34:37 0.00045964910303999994
168 *34:39 0.0004078111222
169 *34:40 0.0004023660524799999
170 *34:41 0.00064615428352
171 *34:44 0.00020176461784
172 *34:46 0.0011808118288000001
173 *34:42 0.0002753982548
174 *34:48 8.932229792e-05
175 *34:49 0.00038132854871999994
176 *34:51 0.0004791399875199999
177 *34:53 0.00030188082828000006
178 *34:45 0.0003621946806399999
179 *34:56 0.00028423114272
180 *34:50 0.00024891568132000004
181 *34:58 0.00043429369568000003
182 *34:60 0.00012830406688
183 *34:61 0.0005960852944
184 *34:62 4.017137184e-05
185 *34:63 0.00016946796088000002
186 _283_:A 0.00012830406688
187 *34:66 6.898398368e-05
188 *34:67 0.001960447208
189 *34:68 0.00043429369568000003
190 _156_:Y 0.00016728583584
191 _280_:A 0
192 _292_:A 0
193 _293_:A 0
194 _291_:A 0
195 _290_:A 0
196 _289_:A 0
197 _279_:A 0
198 _299_:A 0
199 _298_:A 0
200 _325_:RESET_B 0
201 *34:70 0
202 _301_:A 0
203 *34:31 0
204 *34:35 0
205 _286_:A 0
206 *34:38 0
207 _281_:A 0
208 _296_:A 0
209 *34:43 0
210 _294_:A 0
211 _284_:A 0
212 *34:52 0
213 *34:55 0
214 _282_:A 0
215 *34:65 0
216 _288_:A 0
*RES
186 *34:1 _280_:A 0.8214285714285714
187 *34:2 _292_:A 0.4107142857142857
188 *34:3 *34:4 6.982142857142857
189 *34:5 _293_:A 1.232142857142857
190 *34:6 *34:3 7.5892857142857135
191 *34:7 _292_:A 0.30357142857142855
192 *34:8 _291_:A 0.4107142857142857
193 *34:9 *34:10 4.857142857142857
194 *34:11 _289_:A 1.6428571428571428
195 *34:10 *34:12 9.714285714285714
196 *34:12 *34:13 7.5892857142857135
197 *34:4 *34:9 14.571428571428571
198 _295_:A *34:14 7.3928571428571415
199 *34:14 _279_:A 4.517857142857142
200 *34:15 _299_:A 5.75
201 *34:16 *34:17 1.2410714285714284
202 *34:18 *34:19 4.517857142857142
203 *34:19 _298_:A 0.6071428571428571
204 *34:20 *34:21 3.9196428571428563
205 *34:17 *34:20 0.4107142857142857
206 *34:21 *34:22 8.803571428571427
207 *34:23 _301_:A 2.875
208 _297_:A *34:24 0.30357142857142855
209 *34:25 *34:24 3.6964285714285707
210 *34:26 *34:27 1.8214285714285714
211 *34:28 *34:29 1.5178571428571426
212 _287_:A *34:30 3.4910714285714284
213 _285_:A *34:31 0.4107142857142857
214 *34:32 *34:33 3.035714285714285
215 *34:34 *34:35 8.214285714285714
216 *34:36 *34:35 73.19999999999999
217 *34:36 _286_:A 0.4107142857142857
218 *34:30 *34:37 0.30357142857142855
219 *34:37 *34:38 4.723214285714286
220 *34:39 *34:32 4.553571428571428
221 *34:40 _281_:A 0.30357142857142855
222 *34:41 *34:42 7.285714285714286
223 *34:40 *34:43 3.6964285714285707
224 *34:44 _294_:A 1.232142857142857
225 *34:44 *34:45 48.79999999999999
226 *34:46 *34:45 12.321428571428571
227 *34:42 *34:47 3.035714285714285
228 *34:48 _284_:A 0.8214285714285714
229 *34:49 *34:50 4.249999999999999
230 *34:51 *34:52 4.928571428571428
231 *34:53 *34:54 3.339285714285714
232 *34:45 *34:55 3.6964285714285707
233 *34:56 _283_:A 2.875
234 *34:50 *34:57 2.7321428571428568
235 *34:58 *34:59 4.857142857142857
236 *34:60 *34:56 1.232142857142857
237 *34:61 _156_:Y 6.160714285714286
238 *34:62 *34:61 0.30357142857142855
239 *34:63 *34:64 1.8214285714285714
240 _283_:A *34:65 1.232142857142857
241 *34:66 _288_:A 0.6071428571428571
242 *34:7 *34:40 10.267857142857142
243 *34:67 *34:66 20.535714285714285
244 *34:68 *34:69 4.857142857142857
245 _156_:Y *34:70 1.6428571428571428
246 _280_:A _280_:A 0
247 *34:1 *34:4 0
248 _292_:A _292_:A 0
249 *34:2 *34:3 0
250 _293_:A _293_:A 0
251 *34:5 *34:6 0
252 _291_:A _291_:A 0
253 *34:8 *34:9 0
254 _290_:A _290_:A 0
255 _290_:A *34:10 0
256 _289_:A _289_:A 0
257 *34:11 *34:12 0
258 _287_:A _287_:A 0
259 _287_:A *34:13 0
260 *34:67 *34:71 0
261 _295_:A _295_:A 0
262 *34:14 *34:68 0
263 _279_:A _279_:A 0
264 _299_:A _299_:A 0
265 *34:15 *34:16 0
266 _299_:A *34:28 0
267 *34:18 *34:29 0
268 _298_:A _298_:A 0
269 _325_:RESET_B *34:21 0
270 *34:70 *34:22 0
271 _301_:A _301_:A 0
272 *34:23 *34:72 0
273 _297_:A _297_:A 0
274 *34:25 *34:26 0
275 _301_:A *34:27 0
276 _285_:A _285_:A 0
277 *34:31 *34:32 0
278 *34:34 *34:33 0
279 *34:35 *34:35 0
280 *34:36 *34:36 0
281 _286_:A _286_:A 0
282 *34:38 *34:39 0
283 _281_:A _281_:A 0
284 _296_:A _296_:A 0
285 _296_:A *34:41 0
286 *34:43 *34:42 0
287 _294_:A _294_:A 0
288 *34:44 *34:44 0
289 *34:45 *34:45 0
290 *34:46 *34:47 0
291 _284_:A _284_:A 0
292 *34:48 *34:49 0
293 *34:52 *34:50 0
294 *34:51 *34:53 0
295 *34:55 *34:54 0
296 _284_:A *34:69 0
297 _283_:A _283_:A 0
298 *34:56 *34:57 0
299 _282_:A _282_:A 0
300 _282_:A *34:59 0
301 *34:60 *34:58 0
302 _156_:Y _156_:Y 0
303 *34:62 *34:64 0
304 *34:65 *34:63 0
305 _288_:A _288_:A 0
*END

*D_NET *35 0.00011650281392
*CONN
*I _326_:RESET_B I
*I _301_:X O
*CAP
217 *35:1 0.00011650281392
218 _301_:X 0
219 _326_:RESET_B 0
*RES
306 *35:1 *35:2 1.2142857142857142
307 _301_:X _301_:X 0
308 _301_:X *35:2 0
309 _326_:RESET_B *35:1 0
*END

*D_NET *36 0.00035073717472
*CONN
*I _307_:D I
*I _251_:X O
*CAP
220 _251_:X 0.00012830406688
221 *36:2 0.00022243310784000002
222 _307_:D 0
223 *36:1 0
*RES
310 _251_:X *36:1 1.232142857142857
311 *36:2 *36:3 2.4285714285714284
312 _307_:D _307_:D 0
313 _307_:D *36:2 0
314 *36:1 *36:3 0
315 _251_:X _251_:X 0
*END

*D_NET *37 0.00020582511184000002
*CONN
*I _308_:D I
*I _250_:X O
*CAP
224 _250_:X 8.932229792e-05
225 *37:2 0.00011650281392
226 *37:1 0
227 _308_:D 0
*RES
316 _250_:X *37:1 0.8214285714285714
317 *37:2 *37:3 1.2142857142857142
318 _250_:X _250_:X 0
319 *37:1 *37:2 0
320 _308_:D _308_:D 0
321 _308_:D *37:3 0
*END

*D_NET *38 0.0006335555446799999
*CONN
*I _309_:D I
*I _248_:X O
*CAP
228 _248_:X 8.932229792e-05
229 *38:2 0.00010326152718000001
230 *38:4 0.00044097171957999993
231 *38:1 0
232 _309_:D 0
*RES
322 _248_:X *38:1 0.8214285714285714
323 *38:2 *38:3 1.0624999999999998
324 *38:4 *38:3 0.4107142857142857
325 *38:4 *38:5 4.4017857142857135
326 _248_:X _248_:X 0
327 *38:1 *38:2 0
328 _309_:D _309_:D 0
329 _309_:D *38:5 0
*END

*D_NET *39 0.00058314360596
*CONN
*I _310_:D I
*I _245_:X O
*CAP
233 *39:1 0.00014298538739999998
234 *39:3 0.00044015821855999997
235 _310_:D 0
236 _245_:X 0
*RES
330 *39:1 *39:2 1.5178571428571426
331 *39:3 _245_:X 4.517857142857142
332 _310_:D _310_:D 0
333 _310_:D *39:1 0
334 *39:3 *39:2 0
335 _245_:X _245_:X 0
*END

*D_NET *40 0.00041874144556
*CONN
*I _311_:D I
*I _244_:Y O
*CAP
237 _311_:D 0.00032872120512
238 *40:2 9.002024044000002e-05
239 *40:1 0
240 _244_:Y 0
*RES
336 _311_:D *40:1 3.3437499999999996
337 *40:2 *40:3 0.9107142857142857
338 _311_:D _311_:D 0
339 *40:1 *40:2 0
340 _244_:Y _244_:Y 0
341 _244_:Y *40:3 0
*END

*D_NET *41 0.0004923862929199999
*CONN
*I _312_:D I
*I _240_:X O
*CAP
241 _312_:D 4.017137184e-05
242 *41:1 0.0003621946806399999
243 *41:3 9.002024044000002e-05
244 *41:2 0
245 _240_:X 0
*RES
342 _312_:D *41:1 0.30357142857142855
343 *41:1 *41:2 3.6964285714285707
344 *41:3 *41:4 0.9107142857142857
345 _312_:D _312_:D 0
346 *41:2 *41:3 0
347 _240_:X _240_:X 0
348 _240_:X *41:4 0
*END

*D_NET *42 0.0005860272814000001
*CONN
*I _313_:D I
*I _239_:Y O
*CAP
246 _313_:D 0.00025075766720000005
247 *42:2 9.002024044000002e-05
248 *42:4 0.00024524937376
249 *42:1 0
250 _239_:Y 0
*RES
349 _313_:D *42:1 2.5223214285714284
350 *42:2 *42:3 0.9107142857142857
351 *42:4 _239_:Y 2.464285714285714
352 _313_:D _313_:D 0
353 *42:1 *42:3 0
354 *42:4 *42:2 0
355 _239_:Y _239_:Y 0
*END

*D_NET *43 0.00045270658144000003
*CONN
*I _314_:D I
*I _237_:X O
*CAP
251 _314_:D 0.0002062676048
252 *43:2 0.00024643897664
253 _237_:X 0
*RES
356 _314_:D *43:1 2.0535714285714284
357 *43:2 *43:1 0.30357142857142855
358 *43:2 _237_:X 2.0535714285714284
359 _314_:D _314_:D 0
360 _237_:X _237_:X 0
*END

*D_NET *44 0.00031027122324
*CONN
*I _315_:D I
*I _235_:X O
*CAP
254 *44:1 0.00016728583584
255 *44:2 0.00014298538739999998
256 _315_:D 0
257 _235_:X 0
*RES
361 *44:1 _315_:D 1.6428571428571428
362 *44:2 *44:3 1.5178571428571426
363 _315_:D _315_:D 0
364 *44:1 *44:2 0
365 _235_:X _235_:X 0
366 _235_:X *44:3 0
*END

*D_NET *45 0.00056920939536
*CONN
*I _316_:D I
*I _231_:X O
*CAP
258 _316_:D 0.00012830406688
259 *45:1 4.017137184e-05
260 *45:2 0.00028423114272
261 *45:4 0.00011650281392
262 *45:3 0
263 _231_:X 0
*RES
367 _316_:D *45:1 1.232142857142857
368 *45:1 *45:2 0.30357142857142855
369 *45:2 *45:3 2.875
370 *45:4 *45:5 1.2142857142857142
371 _316_:D _316_:D 0
372 *45:3 *45:4 0
373 _231_:X _231_:X 0
374 _231_:X *45:5 0
*END

*D_NET *46 0.00028378864976
*CONN
*I _317_:D I
*I _229_:Y O
*CAP
264 *46:1 0.00011650281392
265 _229_:Y 0.00016728583584
266 _317_:D 0
267 *46:3 0
*RES
375 *46:1 *46:2 1.2142857142857142
376 _229_:Y *46:3 1.6428571428571428
377 _317_:D _317_:D 0
378 _317_:D *46:1 0
379 *46:3 *46:2 0
380 _229_:Y _229_:Y 0
*END

*D_NET *47 0.00032277041872
*CONN
*I _318_:D I
*I _224_:Y O
*CAP
268 *47:1 0.00011650281392
269 *47:3 0.0002062676048
270 _318_:D 0
271 _224_:Y 0
*RES
381 *47:1 *47:2 1.2142857142857142
382 *47:3 _224_:Y 2.0535714285714284
383 *47:3 *47:1 0
384 _318_:D _318_:D 0
385 _318_:D *47:2 0
386 _224_:Y _224_:Y 0
*END

*D_NET *48 0.0006358141732799999
*CONN
*I _319_:D I
*I _163_:X O
*CAP
272 *48:1 0.0005193113593599999
273 *48:3 0.00011650281392
274 _319_:D 0
275 *48:2 0
276 _163_:X 0
*RES
387 *48:1 _319_:D 4.928571428571428
388 *48:1 *48:2 0.30357142857142855
389 *48:3 *48:4 1.2142857142857142
390 _319_:D _319_:D 0
391 *48:2 *48:3 0
392 _163_:X _163_:X 0
393 _163_:X *48:4 0
*END

*D_NET *49 0.00068729513772
*CONN
*I _320_:D I
*I _162_:X O
*CAP
277 _320_:D 4.017137184e-05
278 *49:2 0.00055710352544
279 *49:3 9.002024044000002e-05
280 _162_:X 0
*RES
394 _320_:D *49:1 0.30357142857142855
395 *49:2 *49:1 5.75
396 *49:3 *49:4 0.9107142857142857
397 _320_:D _320_:D 0
398 *49:2 *49:3 0
399 _162_:X _162_:X 0
400 _162_:X *49:4 0
*END

*D_NET *50 0.00079218374208
*CONN
*I _321_:D I
*I _161_:X O
*CAP
281 _161_:X 0.00079218374208
282 _321_:D 0
*RES
401 _161_:X _321_:D 7.803571428571428
402 _161_:X _161_:X 0.30357142857142855
403 _321_:D _321_:D 0
404 _161_:X _161_:X 0
*END

*D_NET *51 0.00027128945428
*CONN
*I _322_:D I
*I _160_:X O
*CAP
283 *51:1 0.00014298538739999998
284 _160_:X 0.00012830406688
285 _322_:D 0
286 *51:3 0
*RES
405 *51:1 *51:2 1.5178571428571426
406 _160_:X *51:3 1.232142857142857
407 _322_:D _322_:D 0
408 _322_:D *51:1 0
409 *51:3 *51:2 0
410 _160_:X _160_:X 0
*END

*D_NET *52 0.00020582511184000002
*CONN
*I _323_:D I
*I _159_:X O
*CAP
287 *52:1 0.00011650281392
288 *52:3 8.932229792e-05
289 _323_:D 0
290 _159_:X 0
*RES
411 *52:1 *52:2 1.2142857142857142
412 *52:3 _159_:X 0.8214285714285714
413 _323_:D _323_:D 0
414 _323_:D *52:1 0
415 *52:3 *52:2 0
416 _159_:X _159_:X 0
*END

*D_NET *53 0.00042721653012
*CONN
*I _324_:D I
*I _158_:X O
*CAP
291 *53:1 0.00014298538739999998
292 _324_:D 0.00028423114272
293 _158_:X 0
294 *53:3 0
*RES
417 *53:1 *53:2 1.5178571428571426
418 _324_:D *53:3 2.875
419 _158_:X _158_:X 0
420 _158_:X *53:1 0
421 *53:3 *53:2 0
422 _324_:D _324_:D 0
*END

*D_NET *54 0.0006736063393599999
*CONN
*I _325_:D I
*I _157_:X O
*CAP
295 *54:1 0.00011650281392
296 _157_:X 0.00055710352544
297 *54:3 0
298 _325_:D 0
*RES
423 *54:1 *54:2 1.2142857142857142
424 _157_:X *54:3 5.75
425 *54:3 *54:2 0
426 _325_:D _325_:D 0
427 _325_:D *54:1 0
428 _157_:X _157_:X 0
*END

*D_NET *55 0.0007255789641599999
*CONN
*I _326_:D I
*I _154_:X O
*CAP
299 *55:1 0.00045964910303999994
300 *55:2 4.017137184e-05
301 _154_:X 0.00022575848928
302 _326_:D 0
*RES
429 *55:1 _326_:D 4.723214285714286
430 *55:2 *55:1 0.30357142857142855
431 _154_:X *55:2 2.258928571428571
432 _326_:D _326_:D 0
433 _154_:X _154_:X 0
*END

*D_NET *56 0.00150845074932
*CONN
*I _244_:A1 I
*I _192_:A1 I
*I _186_:B1 I
*I _138_:Y O
*CAP
303 *56:1 0.00024891568132000004
304 *56:3 0.0009639451652800001
305 _244_:A1 0.00012830406688
306 *56:4 0.00016728583584
307 _192_:A1 0
308 _138_:Y 0
309 _186_:B1 0
*RES
434 *56:1 *56:2 2.7321428571428568
435 *56:3 *56:1 10.928571428571427
436 _244_:A1 _138_:Y 1.232142857142857
437 *56:4 _186_:B1 1.6428571428571428
438 _244_:A1 _244_:A1 0
439 _244_:A1 *56:3 0
440 *56:4 *56:1 0
441 _192_:A1 _192_:A1 0
442 _192_:A1 *56:2 0
443 _138_:Y _138_:Y 0
444 _186_:B1 _186_:B1 0
*END

*D_NET *57 0.00062479916032
*CONN
*I _192_:A2 I
*I _186_:B2 I
*I _139_:Y O
*CAP
310 *57:1 0.00022243310784000002
311 _186_:B2 4.017137184e-05
312 *57:4 0.0003621946806399999
313 _192_:A2 0
314 _139_:Y 0
*RES
445 *57:1 *57:2 2.4285714285714284
446 _186_:B2 *57:3 0.30357142857142855
447 *57:4 _139_:Y 3.6964285714285707
448 _192_:A2 _192_:A2 0
449 _192_:A2 *57:2 0