*SPEF "IEEE 1481-1998"
*DESIGN "digital_pll"
*DATE "Wed May 05 11:03:22 2021"
*VENDOR "AUC CSCE Department"
*PROGRAM "SPEF Extractor"
*VERSION "1.0"
*DESIGN_FLOW "PIN_CAP NONE"
*DIVIDER /
*DELIMITER :
*BUS_DELIMITER []
*T_UNIT 1.00000 NS
*C_UNIT 1.00000 PF
*R_UNIT 1.00000 OHM
*L_UNIT 1.00000 HENRY


*NAME_MAP
*0 clockc
*1 clockd[0]
*2 clockd[1]
*3 clockd[2]
*4 clockd[3]
*5 clockp[0]
*6 clockp[1]
*7 dco
*8 div[0]
*9 div[1]
*10 div[2]
*11 div[3]
*12 div[4]
*13 ext_trim[0]
*14 ext_trim[10]
*15 ext_trim[11]
*16 ext_trim[12]
*17 ext_trim[13]
*18 ext_trim[14]
*19 ext_trim[15]
*20 ext_trim[16]
*21 ext_trim[17]
*22 ext_trim[18]
*23 ext_trim[19]
*24 ext_trim[1]
*25 ext_trim[20]
*26 ext_trim[21]
*27 ext_trim[22]
*28 ext_trim[23]
*29 ext_trim[24]
*30 ext_trim[25]
*31 ext_trim[2]
*32 ext_trim[3]
*33 ext_trim[4]
*34 ext_trim[5]
*35 ext_trim[6]
*36 ext_trim[7]
*37 ext_trim[8]
*38 ext_trim[9]
*39 extclk_sel
*40 osc
*41 reset
*42 sel[0]
*43 sel[1]
*44 sel[2]
*45 _000_
*46 _001_
*47 _002_
*48 _003_
*49 _004_
*50 _005_
*51 _006_
*52 _007_
*53 _008_
*54 _009_
*55 _010_
*56 _011_
*57 _012_
*58 _013_
*59 _014_
*60 _015_
*61 _016_
*62 _017_
*63 _018_
*64 _019_
*65 _020_
*66 _021_
*67 _022_
*68 _023_
*69 _024_
*70 _025_
*71 _026_
*72 _027_
*73 _028_
*74 _029_
*75 _030_
*76 _031_
*77 _032_
*78 _033_
*79 _034_
*80 _035_
*81 _036_
*82 _037_
*83 _038_
*84 _039_
*85 _040_
*86 _041_
*87 _042_
*88 _043_
*89 _044_
*90 _045_
*91 _046_
*92 _047_
*93 _048_
*94 _049_
*95 _050_
*96 _051_
*97 _052_
*98 _053_
*99 _054_
*100 _055_
*101 _056_
*102 _057_
*103 _058_
*104 _059_
*105 _060_
*106 _061_
*107 _062_
*108 _063_
*109 _064_
*110 _065_
*111 _066_
*112 _067_
*113 _068_
*114 _069_
*115 _070_
*116 _071_
*117 _072_
*118 _073_
*119 _074_
*120 _075_
*121 _076_
*122 _077_
*123 _078_
*124 _079_
*125 _080_
*126 _081_
*127 _082_
*128 _083_
*129 _084_
*130 _085_
*131 _086_
*132 _087_
*133 _088_
*134 _089_
*135 _090_
*136 _091_
*137 _092_
*138 _093_
*139 _094_
*140 _095_
*141 _096_
*142 _097_
*143 _098_
*144 _099_
*145 _100_
*146 _101_
*147 _102_
*148 _103_
*149 _104_
*150 _105_
*151 _106_
*152 _107_
*153 _108_
*154 _109_
*155 _110_
*156 _111_
*157 _112_
*158 _113_
*159 _114_
*160 _115_
*161 _116_
*162 _117_
*163 _118_
*164 _119_
*165 _120_
*166 _121_
*167 _122_
*168 _123_
*169 _124_
*170 _125_
*171 _126_
*172 _127_
*173 _128_
*174 _129_
*175 _130_
*176 _131_
*177 _132_
*178 _133_
*179 _134_
*180 _135_
*181 _136_
*182 _137_
*183 _138_
*184 _139_
*185 _140_
*186 _141_
*187 _142_
*188 _143_
*189 _144_
*190 _145_
*191 _146_
*192 _147_
*193 _148_
*194 _149_
*195 _150_
*196 _151_
*197 _152_
*198 _153_
*199 _154_
*200 _155_
*201 _156_
*202 _157_
*203 _158_
*204 _159_
*205 _160_
*206 _161_
*207 _162_
*208 _163_
*209 _164_
*210 _165_
*211 _166_
*212 _167_
*213 _168_
*214 _169_
*215 _170_
*216 _171_
*217 _172_
*218 _173_
*219 _174_
*220 _175_
*221 nint\[0\]
*222 nint\[1\]
*223 nint\[2\]
*224 nint\[3\]
*225 pll_control.clock
*226 pll_control.count0\[0\]
*227 pll_control.count0\[1\]
*228 pll_control.count0\[2\]
*229 pll_control.count0\[3\]
*230 pll_control.count0\[4\]
*231 pll_control.count1\[0\]
*232 pll_control.count1\[1\]
*233 pll_control.count1\[2\]
*234 pll_control.count1\[3\]
*235 pll_control.count1\[4\]
*236 pll_control.oscbuf\[0\]
*237 pll_control.oscbuf\[1\]
*238 pll_control.oscbuf\[2\]
*239 pll_control.prep\[0\]
*240 pll_control.prep\[1\]
*241 pll_control.prep\[2\]
*242 pll_control.tint\[0\]
*243 pll_control.tint\[1\]
*244 pll_control.tint\[2\]
*245 pll_control.tint\[3\]
*246 pll_control.tint\[4\]
*247 pll_control.tval\[0\]
*248 pll_control.tval\[1\]
*249 resetb
*250 ringosc.c\[0\]
*251 ringosc.c\[1\]
*252 ringosc.dstage\[0\].id.d0
*253 ringosc.dstage\[0\].id.d1
*254 ringosc.dstage\[0\].id.d2
*255 ringosc.dstage\[0\].id.in
*256 ringosc.dstage\[0\].id.out
*257 ringosc.dstage\[0\].id.trim\[0\]
*258 ringosc.dstage\[0\].id.trim\[1\]
*259 ringosc.dstage\[0\].id.ts
*260 ringosc.dstage\[10\].id.d0
*261 ringosc.dstage\[10\].id.d1
*262 ringosc.dstage\[10\].id.d2
*263 ringosc.dstage\[10\].id.in
*264 ringosc.dstage\[10\].id.out
*265 ringosc.dstage\[10\].id.trim\[0\]
*266 ringosc.dstage\[10\].id.trim\[1\]
*267 ringosc.dstage\[10\].id.ts
*268 ringosc.dstage\[11\].id.d0
*269 ringosc.dstage\[11\].id.d1
*270 ringosc.dstage\[11\].id.d2
*271 ringosc.dstage\[11\].id.out
*272 ringosc.dstage\[11\].id.trim\[0\]
*273 ringosc.dstage\[11\].id.trim\[1\]
*274 ringosc.dstage\[11\].id.ts
*275 ringosc.dstage\[1\].id.d0
*276 ringosc.dstage\[1\].id.d1
*277 ringosc.dstage\[1\].id.d2
*278 ringosc.dstage\[1\].id.out
*279 ringosc.dstage\[1\].id.trim\[0\]
*280 ringosc.dstage\[1\].id.trim\[1\]
*281 ringosc.dstage\[1\].id.ts
*282 ringosc.dstage\[2\].id.d0
*283 ringosc.dstage\[2\].id.d1
*284 ringosc.dstage\[2\].id.d2
*285 ringosc.dstage\[2\].id.out
*286 ringosc.dstage\[2\].id.trim\[0\]
*287 ringosc.dstage\[2\].id.trim\[1\]
*288 ringosc.dstage\[2\].id.ts
*289 ringosc.dstage\[3\].id.d0
*290 ringosc.dstage\[3\].id.d1
*291 ringosc.dstage\[3\].id.d2
*292 ringosc.dstage\[3\].id.out
*293 ringosc.dstage\[3\].id.trim\[0\]
*294 ringosc.dstage\[3\].id.trim\[1\]
*295 ringosc.dstage\[3\].id.ts
*296 ringosc.dstage\[4\].id.d0
*297 ringosc.dstage\[4\].id.d1
*298 ringosc.dstage\[4\].id.d2
*299 ringosc.dstage\[4\].id.out
*300 ringosc.dstage\[4\].id.trim\[0\]
*301 ringosc.dstage\[4\].id.trim\[1\]
*302 ringosc.dstage\[4\].id.ts
*303 ringosc.dstage\[5\].id.d0
*304 ringosc.dstage\[5\].id.d1
*305 ringosc.dstage\[5\].id.d2
*306 ringosc.dstage\[5\].id.out
*307 ringosc.dstage\[5\].id.trim\[0\]
*308 ringosc.dstage\[5\].id.trim\[1\]
*309 ringosc.dstage\[5\].id.ts
*310 ringosc.dstage\[6\].id.d0
*311 ringosc.dstage\[6\].id.d1
*312 ringosc.dstage\[6\].id.d2
*313 ringosc.dstage\[6\].id.out
*314 ringosc.dstage\[6\].id.trim\[0\]
*315 ringosc.dstage\[6\].id.trim\[1\]
*316 ringosc.dstage\[6\].id.ts
*317 ringosc.dstage\[7\].id.d0
*318 ringosc.dstage\[7\].id.d1
*319 ringosc.dstage\[7\].id.d2
*320 ringosc.dstage\[7\].id.out
*321 ringosc.dstage\[7\].id.trim\[0\]
*322 ringosc.dstage\[7\].id.trim\[1\]
*323 ringosc.dstage\[7\].id.ts
*324 ringosc.dstage\[8\].id.d0
*325 ringosc.dstage\[8\].id.d1
*326 ringosc.dstage\[8\].id.d2
*327 ringosc.dstage\[8\].id.out
*328 ringosc.dstage\[8\].id.trim\[0\]
*329 ringosc.dstage\[8\].id.trim\[1\]
*330 ringosc.dstage\[8\].id.ts
*331 ringosc.dstage\[9\].id.d0
*332 ringosc.dstage\[9\].id.d1
*333 ringosc.dstage\[9\].id.d2
*334 ringosc.dstage\[9\].id.trim\[0\]
*335 ringosc.dstage\[9\].id.trim\[1\]
*336 ringosc.dstage\[9\].id.ts
*337 ringosc.iss.ctrl0
*338 ringosc.iss.d0
*339 ringosc.iss.d1
*340 ringosc.iss.d2
*341 ringosc.iss.one
*342 ringosc.iss.reset
*343 ringosc.iss.trim\[0\]
*344 ringosc.iss.trim\[1\]
*345 net1
*346 net2
*347 net3
*348 net4
*349 net5
*350 net6
*351 net7
*352 net8
*353 net9
*354 net10
*355 net11
*356 net12
*357 net13
*358 net14
*359 net15
*360 net16
*361 net17
*362 net18
*363 net19
*364 net20
*365 net21
*366 net22
*367 net23
*368 net24
*369 net25
*370 net26
*371 net27
*372 net28
*373 net29
*374 net30
*375 net31
*376 net32
*377 net33
*378 net34
*379 net35
*380 net36
*381 net37
*382 net38
*383 net39
*384 net40
*385 net41
*386 net42
*387 net43
*388 net44
*389 net45
*390 net46

*D_NET *0 0.00040993717191999997
*CONN
*P clockc O
*I output39:X O
*CAP
0 *0:1 0.0003596407917
1 *0:3 5.029638022e-05
2 output39:X 0
*RES
0 *0:1 *0:2 0.6125666666666667
1 *0:3 *0:4 0.45535714285714285
2 *0:3 *0:2 0
3 output39:X output39:X 0
4 output39:X *0:4 0
*END

*D_NET *1 0.00042287193864
*CONN
*P clockd[0] O
*I output40:X O
*CAP
3 *1:1 2.3813806740000006e-05
4 *1:3 0.00039905813189999997
5 output40:X 0
6 *1:2 0
*RES
5 *1:1 *1:2 0.15178571428571427
6 *1:3 *1:4 0.6846333333333334
7 output40:X output40:X 0
8 output40:X *1:1 0
9 *1:2 *1:4 0
*END

*D_NET *2 0.00038345459844
*CONN
*P clockd[1] O
*I output41:X O
*CAP
7 *2:1 0.0003596407917
8 *2:3 2.3813806740000006e-05
9 *2:4 0
10 output41:X 0
*RES
10 *2:1 *2:2 0.6125666666666667
11 *2:3 *2:4 0.15178571428571427
12 *2:4 *2:2 0
13 output41:X output41:X 0
14 output41:X *2:3 0
*END

*D_NET *3 0.00046228927884
*CONN
*P clockd[2] O
*I output42:X O
*CAP
11 *3:1 2.3813806740000006e-05
12 *3:3 0.00043847547209999995
13 output42:X 0
14 *3:2 0
*RES
15 *3:1 *3:2 0.15178571428571427
16 *3:3 *3:4 0.7567
17 output42:X output42:X 0
18 output42:X *3:1 0
19 *3:2 *3:3 0
*END

*D_NET *4 0.0014114079405
*CONN
*P clockd[3] O
*I output43:X O
*CAP
15 *4:1 0.00065939557026
16 output43:X 0.00075201237024
17 *4:3 0
*RES
20 *4:1 *4:2 7.437499999999999
21 output43:X *4:3 7.803571428571428
22 *4:3 *4:2 0
23 output43:X output43:X 0
*END

*D_NET *5 0.00063473252648
*CONN
*P clockp[0] O
*I output44:X O
*CAP
18 *5:1 0.00023567439458000006
19 *5:3 0.00039905813189999997
20 output44:X 0
21 *5:2 0
*RES
24 *5:1 *5:2 2.580357142857143
25 *5:3 *5:4 0.6846333333333334
26 output44:X output44:X 0
27 output44:X *5:1 0
28 *5:2 *5:4 0
*END

*D_NET *6 0.00063291299678
*CONN
*P clockp[1] O
*I output45:X O
*CAP
22 *6:1 0.00063291299678
23 output45:X 0
*RES
29 *6:1 *6:2 7.133928571428571
30 output45:X output45:X 0
31 output45:X *6:2 0
*END

*D_NET *7 0.0007362186727000002
*CONN
*P dco I
*I input1:A I
*CAP
24 *7:1 0.0006858781437400002
25 *7:3 5.034052896000001e-05
26 input1:A 0
*RES
32 *7:1 *7:2 7.741071428571428
33 *7:3 input1:A 0.4107142857142857
34 *7:3 *7:2 0
35 input1:A input1:A 0
*END

*D_NET *8 0.00054173699928
*CONN
*P div[0] I
*I input2:A I
*CAP
27 *8:1 0.00010326152718000001
28 *8:3 0.00043847547209999995
29 input2:A 0
30 *8:2 0
*RES
36 *8:1 *8:2 1.0624999999999998
37 *8:3 *8:4 0.7567
38 input2:A input2:A 0
39 input2:A *8:1 0
40 *8:2 *8:3 0
*END

*D_NET *9 0.0013822262899
*CONN
*P div[1] I
*I input3:A I
*CAP
31 input3:A 4.017137184e-05
32 *9:2 0.0002854207456
33 *9:4 0.00105663417246
34 *9:3 0
*RES
41 input3:A *9:1 0.30357142857142855
42 *9:2 *9:1 2.464285714285714
43 *9:2 *9:3 0.30357142857142855
44 *9:4 *9:5 11.991071428571427
45 input3:A input3:A 0
46 *9:3 *9:4 0
*END

*D_NET *10 0.0008712561581000002
*CONN
*P div[2] I
*I input4:A I
*CAP
35 *10:1 0.0008712561581000002
36 input4:A 0
*RES
47 *10:1 *10:2 9.866071428571429
48 input4:A input4:A 0
49 input4:A *10:1 0
*END

*D_NET *11 0.0012724326077000001
*CONN
*P div[3] I
*I input5:A I
*CAP
37 *11:1 0.00040117644959999997
38 *11:2 0.0008712561581000002
39 input5:A 0
*RES
50 *11:1 input5:A 4.107142857142857
51 *11:2 *11:3 9.866071428571429
52 *11:1 *11:3 0
53 input5:A input5:A 0
*END

*D_NET *12 0.0009605784560200001
*CONN
*P div[4] I
*I input6:A I
*CAP
40 *12:1 8.932229792e-05
41 *12:2 0.0008712561581000002
42 input6:A 0
*RES
54 *12:1 input6:A 0.8214285714285714
55 *12:2 *12:3 9.866071428571429
56 input6:A input6:A 0
57 *12:1 *12:2 0
*END

*D_NET *13 0.0008712561581000002
*CONN
*P ext_trim[0] I
*I input7:A I
*CAP
43 *13:1 0.0008712561581000002
44 input7:A 0
*RES
58 *13:1 *13:2 9.866071428571429
59 input7:A input7:A 0
60 input7:A *13:1 0
*END

*D_NET *14 0.0006858781437400002
*CONN
*P ext_trim[10] I
*I input8:A I
*CAP
45 *14:1 0.0006858781437400002
46 input8:A 0
*RES
61 *14:1 *14:2 7.741071428571428
62 input8:A input8:A 0
63 input8:A *14:2 0
*END

*D_NET *15 0.0008712561581000002
*CONN
*P ext_trim[11] I
*I input9:A I
*CAP
47 *15:1 0.0008712561581000002
48 input9:A 0
*RES
64 *15:1 *15:2 9.866071428571429
65 input9:A input9:A 0
66 input9:A *15:1 0
*END

*D_NET *16 0.0004364197454
*CONN
*P ext_trim[12] I
*I input10:A I
*CAP
49 *16:1 7.67789537e-05
50 *16:3 0.0003596407917
51 input10:A 0
52 *16:2 0
*RES
67 *16:1 *16:2 0.7589285714285713
68 *16:3 *16:4 0.6125666666666667
69 input10:A input10:A 0
70 input10:A *16:1 0
71 *16:2 *16:3 0
*END

*D_NET *17 0.0006858781437400002
*CONN
*P ext_trim[13] I
*I input11:A I
*CAP
53 *17:1 0.0006858781437400002
54 input11:A 0
*RES
72 *17:1 *17:2 7.741071428571428
73 input11:A input11:A 0
74 input11:A *17:2 0
*END

*D_NET *18 0.0010385419939400002
*CONN
*P ext_trim[14] I
*I input12:A I
*CAP
55 *18:1 0.00016728583584
56 *18:2 0.0008712561581000002
57 input12:A 0
*RES
75 *18:1 input12:A 1.6428571428571428
76 *18:2 *18:3 9.866071428571429
77 *18:1 *18:3 0
78 input12:A input12:A 0
*END

*D_NET *19 0.00048877185232
*CONN
*P ext_trim[15] I
*I input13:A I
*CAP
58 *19:1 5.029638022e-05
59 *19:3 0.00043847547209999995
60 input13:A 0
61 *19:2 0
*RES
79 *19:1 *19:2 0.45535714285714285
80 *19:3 *19:4 0.7567
81 input13:A input13:A 0
82 input13:A *19:1 0
83 *19:2 *19:3 0
*END

*D_NET *20 0.0008712561581000002
*CONN
*P ext_trim[16] I
*I input14:A I
*CAP
62 *20:1 0.0008712561581000002
63 input14:A 0
*RES
84 *20:1 *20:2 9.866071428571429
85 input14:A input14:A 0
86 input14:A *20:1 0
*END

*D_NET *21 0.00079178884724
*CONN
*P ext_trim[17] I
*I input15:A I
*CAP
64 *21:1 0.0006355621730999999
65 *21:3 0.00015622667414000004
66 input15:A 0
*RES
87 *21:1 *21:2 1.1170333333333335
88 *21:3 *21:4 1.669642857142857
89 *21:3 *21:2 0
90 input15:A input15:A 0
91 input15:A *21:4 0
*END

*D_NET *22 0.0009605784560200001
*CONN
*P ext_trim[18] I
*I input16:A I
*CAP
67 *22:1 8.932229792e-05
68 *22:2 0.0008712561581000002
69 input16:A 0
*RES
92 *22:1 input16:A 0.8214285714285714
93 *22:2 *22:3 9.866071428571429
94 input16:A input16:A 0
95 *22:1 *22:2 0
*END

*D_NET *23 0.00067414986668
*CONN
*P ext_trim[19] I
*I input17:A I
*CAP
70 *23:1 0.00023567439458000006
71 *23:3 0.00043847547209999995
72 input17:A 0
*RES
96 *23:1 *23:2 2.580357142857143
97 *23:3 *23:4 0.7567
98 input17:A input17:A 0
99 input17:A *23:2 0
100 *23:1 *23:3 0
*END

*D_NET *24 0.0008712561581000002
*CONN
*P ext_trim[1] I
*I input18:A I
*CAP
73 *24:1 0.0008712561581000002
74 input18:A 0
*RES
101 *24:1 *24:2 9.866071428571429
102 input18:A input18:A 0
103 input18:A *24:1 0
*END

*D_NET *25 0.0011734799359800002
*CONN
*P ext_trim[20] I
*I input19:A I
*CAP
75 *25:1 0.00024524937376
76 *25:2 2.3813806740000006e-05
77 *25:4 0.0009044167554800002
78 input19:A 0
*RES
104 *25:1 input19:A 2.464285714285714
105 *25:2 *25:3 0.15178571428571427
106 *25:4 *25:3 0.4107142857142857
107 *25:4 *25:5 9.714285714285714
108 input19:A input19:A 0
109 *25:1 *25:2 0
*END

*D_NET *26 0.00038345459844
*CONN
*P ext_trim[21] I
*I input20:A I
*CAP
79 *26:1 0.0003596407917
80 *26:3 2.3813806740000006e-05
81 *26:4 0
82 input20:A 0
*RES
110 *26:1 *26:2 0.6125666666666667
111 *26:3 *26:4 0.15178571428571427
112 *26:4 *26:2 0
113 input20:A input20:A 0
114 input20:A *26:3 0
*END

*D_NET *27 0.0007752004416600002
*CONN
*P ext_trim[22] I
*I input21:A I
*CAP
83 *27:1 0.0006858781437400002
84 *27:3 8.932229792e-05
85 input21:A 0
*RES
115 *27:1 *27:2 7.741071428571428
116 *27:3 input21:A 0.8214285714285714
117 *27:3 *27:2 0
118 input21:A input21:A 0
*END

*D_NET *28 0.0017930498613200003
*CONN
*P ext_trim[23] I
*I input22:A I
*CAP
86 *28:1 5.034052896000001e-05
87 *28:2 0.0007918084376600001
88 *28:4 0.0009509008947
89 input22:A 0
90 *28:3 0
*RES
119 *28:1 input22:A 0.4107142857142857
120 *28:2 *28:3 8.95535714285714
121 *28:4 *28:5 1.6935666666666669
122 input22:A input22:A 0
123 *28:1 *28:2 0
124 *28:3 *28:4 0
*END

*D_NET *29 0.0007752004416600002
*CONN
*P ext_trim[24] I
*I input23:A I
*CAP
91 *29:1 0.0006858781437400002
92 *29:3 8.932229792e-05
93 input23:A 0
*RES
125 *29:1 *29:2 7.741071428571428
126 *29:3 input23:A 0.8214285714285714
127 *29:3 *29:2 0
128 input23:A input23:A 0
*END

*D_NET *30 0.0009605784560200001
*CONN
*P ext_trim[25] I
*I input24:A I
*CAP
94 *30:1 8.932229792e-05
95 *30:2 0.0008712561581000002
96 input24:A 0
*RES
129 *30:1 input24:A 0.8214285714285714
130 *30:2 *30:3 9.866071428571429
131 input24:A input24:A 0
132 *30:1 *30:2 0
*END

*D_NET *31 0.0006858781437400002
*CONN
*P ext_trim[2] I
*I input25:A I
*CAP
97 *31:1 0.0006858781437400002
98 input25:A 0
*RES
133 *31:1 *31:2 7.741071428571428
134 input25:A input25:A 0
135 input25:A *31:2 0
*END

*D_NET *32 0.00038345459844
*CONN
*P ext_trim[3] I
*I input26:A I
*CAP
99 *32:1 2.3813806740000006e-05
100 *32:3 0.0003596407917
101 input26:A 0
102 *32:2 0
*RES
136 *32:1 *32:2 0.15178571428571427
137 *32:3 *32:4 0.6125666666666667
138 input26:A input26:A 0
139 input26:A *32:1 0
140 *32:2 *32:3 0
*END

*D_NET *33 0.0013097316302
*CONN
*P ext_trim[4] I
*I input27:A I
*CAP
103 *33:1 0.00043847547209999995
104 *33:3 0.0008712561581000002
105 input27:A 0
*RES
141 *33:1 *33:2 0.7567
142 *33:3 *33:4 9.866071428571429
143 *33:3 *33:1 0
144 input27:A input27:A 0
145 input27:A *33:4 0
*END

*D_NET *34 0.00105207021028
*CONN
*P ext_trim[5] I
*I input28:A I
*CAP
106 *34:1 0.00016728583584
107 *34:2 0.00028863954154000006
108 *34:4 0.0005961448329
109 input28:A 0
*RES
146 *34:1 input28:A 1.6428571428571428
147 *34:2 *34:3 3.1874999999999996
148 *34:4 *34:5 1.0449666666666666
149 input28:A input28:A 0
150 *34:1 *34:3 0
151 *34:2 *34:4 0
*END

*D_NET *35 0.00040993717191999997
*CONN
*P ext_trim[6] I
*I input29:A I
*CAP
110 *35:1 0.0003596407917
111 *35:3 5.029638022e-05
112 input29:A 0
*RES
152 *35:1 *35:2 0.6125666666666667
153 *35:3 *35:4 0.45535714285714285
154 *35:3 *35:2 0
155 input29:A input29:A 0
156 input29:A *35:4 0
*END

*D_NET *36 0.00167593909566
*CONN
*P ext_trim[7] I
*I input30:A I
*CAP
113 input30:A 4.017137184e-05
114 *36:2 0.0007909941392
115 *36:3 0.0008447735846200001
*RES
157 input30:A *36:1 0.30357142857142855
158 *36:2 *36:1 8.214285714285714
159 *36:3 *36:4 9.5625
160 input30:A input30:A 0
161 *36:2 *36:3 0
*END

*D_NET *37 0.00054235003932
*CONN
*P ext_trim[8] I
*I input31:A I
*CAP
116 *37:1 0.0003596407917
117 *37:3 0.00018270924762000003
118 *37:4 0
119 input31:A 0
*RES
162 *37:1 *37:2 0.6125666666666667
163 *37:3 *37:4 1.9732142857142856
164 *37:4 *37:2 0
165 input31:A input31:A 0
166 input31:A *37:3 0
*END

*D_NET *38 0.0006335064463999999
*CONN
*P ext_trim[9] I
*I input32:A I
*CAP
120 *38:1 7.67789537e-05
121 *38:3 0.0005567274927
122 input32:A 0
*RES
167 *38:1 *38:2 0.7589285714285713
168 *38:3 *38:4 0.9729000000000001
169 input32:A input32:A 0
170 input32:A *38:2 0
171 *38:1 *38:3 0
*END

*D_NET *39 0.00051586746584
*CONN
*P extclk_sel I
*I input33:A I
*CAP
123 *39:1 0.0003596407917
124 *39:3 0.00015622667414000004
125 *39:4 0
126 input33:A 0
*RES
172 *39:1 *39:2 0.6125666666666667
173 *39:3 *39:4 1.669642857142857
174 *39:4 *39:2 0
175 input33:A input33:A 0
176 input33:A *39:3 0
*END

*D_NET *40 0.0009215966870600002
*CONN
*P osc I
*I input34:A I
*CAP
127 *40:1 5.034052896000001e-05
128 *40:2 0.0008712561581000002
129 input34:A 0
*RES
177 *40:1 input34:A 0.4107142857142857
178 *40:2 *40:3 9.866071428571429
179 input34:A input34:A 0
180 *40:1 *40:2 0
*END

*D_NET *41 0.0007752004416600002
*CONN
*P reset I
*I input35:A I
*CAP
130 *41:1 0.0006858781437400002
131 *41:3 8.932229792e-05
132 input35:A 0
*RES
181 *41:1 *41:2 7.741071428571428
182 *41:3 input35:A 0.8214285714285714
183 *41:3 *41:2 0
184 input35:A input35:A 0
*END

*D_NET *42 0.0007362186727000002
*CONN
*P sel[0] I
*I input36:A I
*CAP
133 *42:1 0.0006858781437400002
134 *42:3 5.034052896000001e-05
135 input36:A 0
*RES
185 *42:1 *42:2 7.741071428571428
186 *42:3 input36:A 0.4107142857142857
187 *42:3 *42:2 0
188 input36:A input36:A 0
*END

*D_NET *43 0.0009340958825400001
*CONN
*P sel[1] I
*I input37:A I
*CAP
136 input37:A 8.932229792e-05
137 *43:2 0.0008447735846200001
138 *43:1 0
*RES
189 input37:A *43:1 0.8214285714285714
190 *43:2 *43:3 9.5625
191 input37:A input37:A 0
192 *43:1 *43:2 0
*END

*D_NET *44 0.0008711566147400001
*CONN
*P sel[2] I
*I input38:A I
*CAP
139 *44:1 0.00022243310784000002
140 *44:2 4.640188412000001e-05
141 *44:3 0.00047401755590000005
142 *44:5 0.00012830406688
143 input38:A 0
*RES
193 *44:1 *44:2 2.4285714285714284
194 *44:2 *44:3 0.4107142857142857
195 *44:3 *44:4 5.3125
196 *44:5 input38:A 1.232142857142857
197 *44:5 *44:4 0
198 input38:A input38:A 0
*END

*D_NET *45 0.0006736063393599999
*CONN
*I _380_:A1 I
*I _292_:B I
*I _290_:X O
*CAP
144 _290_:X 0.00055710352544
145 *45:1 0.00011650281392
146 _292_:B 0
147 _380_:A1 0
148 *45:3 0
*RES
199 _290_:X _292_:B 5.75
200 *45:1 *45:2 1.2142857142857142
201 _292_:B _292_:B 0
202 _290_:X _290_:X 0
203 _380_:A1 _380_:A1 0
204 _380_:A1 *45:2 0
205 *45:3 *45:1 0
*END

*D_NET *46 0.00025730607628
*CONN
*I _376_:A0 I
*I _292_:X O
*CAP
149 _292_:X 0.00016728583584
150 *46:2 9.002024044000002e-05
151 *46:1 0
152 _376_:A0 0
*RES
206 _292_:X *46:1 1.6428571428571428
207 *46:2 *46:3 0.9107142857142857
208 _292_:X _292_:X 0
209 *46:1 *46:2 0
210 _376_:A0 _376_:A0 0
211 _376_:A0 *46:3 0
*END

*D_NET *47 0.00160909252788
*CONN
*I _374_:A0 I
*I _307_:B1 I
*I _299_:Y O
*CAP
153 _299_:Y 0.0002062676048
154 *47:2 0.00014298538739999998
155 *47:4 0.00067404883232
156 _307_:B1 4.017137184e-05
157 *47:5 0.00032321291168
158 *47:7 0.00022240641984
159 *47:1 0
160 _374_:A0 0
161 *47:6 0
*RES
212 _299_:Y *47:1 2.0535714285714284
213 *47:2 *47:3 1.5178571428571426
214 *47:4 _374_:A0 6.982142857142857
215 _307_:B1 *47:5 0.30357142857142855
216 *47:5 *47:6 3.2857142857142856
217 *47:7 *47:6 97.59999999999998
218 *47:7 _299_:Y 0.8214285714285714
219 _299_:Y _299_:Y 0
220 *47:1 *47:3 0
221 *47:4 *47:2 0
222 _374_:A0 _374_:A0 0
223 _307_:B1 _307_:B1 0
224 *47:6 *47:6 0
225 *47:7 *47:7 0
*END

*D_NET *48 0.00108623988376
*CONN
*I _372_:A0 I
*I _307_:A3 I
*I _304_:B1 I
*I _297_:A I
*I _296_:X O
*CAP
162 _296_:X 0.0002062676048
163 _307_:A3 4.017137184e-05
164 *48:1 5.034052896000001e-05
165 *48:3 0.00016946796088000002
166 _372_:A0 0.00028423114272
167 _304_:B1 0.00016728583584
168 *48:6 0.00016847543872000001
169 _297_:A 0
170 *48:2 0
171 *48:7 0
*RES
226 _296_:X _297_:A 2.0535714285714284
227 _307_:A3 *48:1 0.30357142857142855
228 *48:1 *48:2 0.4107142857142857
229 *48:3 *48:4 1.8214285714285714
230 _372_:A0 *48:1 2.875
231 _304_:B1 *48:5 1.6428571428571428
232 *48:6 *48:5 0.30357142857142855
233 *48:6 _296_:X 1.232142857142857
234 _296_:X _296_:X 0
235 _297_:A _297_:A 0
236 _307_:A3 _307_:A3 0
237 *48:2 *48:3 0
238 *48:7 *48:4 0
239 _372_:A0 _372_:A0 0
240 _304_:B1 _304_:B1 0
*END

*D_NET *49 0.0004522149210799999
*CONN
*I _370_:A0 I
*I _291_:X O
*CAP
172 *49:1 0.0003621946806399999
173 *49:2 9.002024044000002e-05
174 _370_:A0 0
175 _291_:X 0
*RES
241 *49:1 _370_:A0 3.6964285714285707
242 *49:2 *49:3 0.9107142857142857
243 _370_:A0 _370_:A0 0
244 *49:1 *49:2 0
245 _291_:X _291_:X 0
246 _291_:X *49:3 0
*END

*D_NET *50 0.0025771505530000002
*CONN
*I _368_:A0 I
*I _302_:Y O
*CAP
176 *50:1 0.00046077626916000004
177 _302_:Y 0.00211637428384
178 *50:3 0
179 _368_:A0 0
*RES
247 *50:1 *50:2 5.160714285714286
248 _302_:Y *50:3 22.178571428571427
249 *50:3 *50:2 0
250 _368_:A0 _368_:A0 0
251 _368_:A0 *50:1 0
252 _302_:Y _302_:Y 0
*END

*D_NET *51 0.00027128945428
*CONN
*I _366_:A0 I
*I _304_:X O
*CAP
180 *51:1 0.00012830406688
181 *51:2 0.00014298538739999998
182 _304_:X 0
183 _366_:A0 0
*RES
253 *51:1 _304_:X 1.232142857142857
254 *51:2 *51:3 1.5178571428571426
255 _304_:X _304_:X 0
256 *51:1 *51:2 0
257 _366_:A0 _366_:A0 0
258 _366_:A0 *51:3 0
*END

*D_NET *52 0.00176791756896
*CONN
*I _364_:A0 I
*I _293_:X O
*CAP
184 _364_:A0 0.00042066733408
185 *52:1 6.898398368e-05
186 *52:2 0.0012782662512
187 _293_:X 0
*RES
259 _364_:A0 *52:1 4.3125
260 *52:1 *52:2 0.6071428571428571
261 *52:2 _293_:X 13.348214285714283
262 _364_:A0 _364_:A0 0
263 _293_:X _293_:X 0
*END

*D_NET *53 0.00209331260568
*CONN
*I _362_:A0 I
*I _305_:X O
*CAP
188 *53:1 0.00016946796088000002
189 *53:3 0.0013277593504
190 *53:5 0.0005960852944
191 _362_:A0 0
192 _305_:X 0
*RES
264 *53:1 *53:2 1.8214285714285714
265 *53:3 *53:4 0.6071428571428571
266 *53:3 _305_:X 13.142857142857142
267 *53:5 *53:4 6.160714285714286
268 *53:5 *53:1 0
269 _362_:A0 _362_:A0 0
270 _362_:A0 *53:2 0
271 _305_:X _305_:X 0
*END

*D_NET *54 0.0015718191212800003
*CONN
*I _360_:A0 I
*I _303_:X O
*CAP
193 _360_:A0 4.017137184e-05
194 *54:1 0.0015316477494400002
195 _303_:X 0
*RES
272 _360_:A0 *54:1 0.30357142857142855
273 *54:1 _303_:X 16.017857142857142
274 _360_:A0 _360_:A0 0
275 _303_:X _303_:X 0
*END

*D_NET *55 0.0033868133296400004
*CONN
*I _358_:A0 I
*I _301_:Y O
*CAP
196 *55:1 0.00028423114272
197 *55:2 0.0021556609718800003
198 _301_:Y 0.0009469212150399999
199 _358_:A0 0
200 *55:4 0
*RES
276 *55:1 _358_:A0 2.875
277 *55:2 *55:3 24.58928571428571
278 _301_:Y *55:4 9.857142857142856
279 _301_:Y _301_:Y 0
280 _358_:A0 _358_:A0 0
281 *55:1 *55:2 0
282 *55:4 *55:3 0
*END

*D_NET *56 0.00043166907767999994
*CONN
*I _356_:A0 I
*I _306_:X O
*CAP
201 _356_:A0 5.034052896000001e-05
202 *56:2 0.00038132854871999994
203 *56:1 0
204 _306_:X 0
*RES
283 _356_:A0 *56:1 0.4107142857142857
284 *56:2 *56:3 4.249999999999999
285 _356_:A0 _356_:A0 0
286 *56:1 *56:2 0
287 _306_:X _306_:X 0
288 _306_:X *56:3 0
*END

*D_NET *57 0.0003492529922
*CONN
*I _354_:A0 I
*I _307_:X O
*CAP
205 *57:1 0.00014298538739999998
206 _307_:X 0.0002062676048
207 _354_:A0 0
208 *57:3 0
*RES
289 *57:1 *57:2 1.5178571428571426
290 _307_:X *57:3 2.0535714285714284
291 _354_:A0 _354_:A0 0
292 _354_:A0 *57:1 0
293 *57:3 *57:2 0
294 _307_:X _307_:X 0
*END

*D_NET *58 0.00196259234588
*CONN
*I _378_:A0 I
*I _303_:B1 I
*I _300_:Y O
*CAP
209 _303_:B1 5.034052896000001e-05
210 *58:2 0.00083153229788
211 *58:4 0.0002062676048
212 *58:5 0.00044015821855999997
213 *58:6 0.00043429369568000003
214 *58:1 0
215 _300_:Y 0
216 _378_:A0 0
*RES
295 _303_:B1 *58:1 0.4107142857142857
296 *58:2 *58:3 9.410714285714285
297 *58:4 _300_:Y 2.0535714285714284
298 *58:5 _378_:A0 4.517857142857142
299 *58:6 *58:2 4.857142857142857
300 _303_:B1 _303_:B1 0
301 *58:1 *58:2 0
302 *58:4 *58:3 0
303 _300_:Y _300_:Y 0
304 _378_:A0 _378_:A0 0
305 *58:5 *58:6 0
*END

*D_NET *59 0.0014240234919200003
*CONN
*I _377_:A0 I
*I _308_:X O
*CAP
217 *59:1 0.0013347011940000003
218 _308_:X 8.932229792e-05
219 _377_:A0 0
220 *59:3 0
*RES
306 *59:1 *59:2 15.178571428571427
307 _308_:X *59:3 0.8214285714285714
308 _377_:A0 _377_:A0 0
309 _377_:A0 *59:1 0
310 *59:3 *59:2 0
311 _308_:X _308_:X 0
*END

*D_NET *60 0.00173034525632
*CONN
*I _380_:A0 I
*I _313_:B I
*I _309_:X O
*CAP
221 *60:1 6.353766696000002e-05
222 *60:3 0.0003621946806399999
223 *60:5 0.00031870992472000004
224 _309_:X 0.000985902984
225 _313_:B 0
226 *60:4 0
227 _380_:A0 0
*RES
312 *60:1 *60:2 0.6071428571428571
313 *60:3 *60:4 3.6964285714285707
314 *60:5 *60:4 48.79999999999999
315 *60:5 _380_:A0 2.464285714285714
316 _309_:X *60:3 10.267857142857142
317 _309_:X _309_:X 0
318 _313_:B _313_:B 0
319 _313_:B *60:1 0
320 *60:3 *60:2 0
321 *60:4 *60:4 0
322 *60:5 *60:5 0
323 _380_:A0 _380_:A0 0
*END

*D_NET *61 0.00379128929996
*CONN
*I _375_:A0 I
*I _316_:X O
*CAP
228 *61:1 0.00024524937376
229 *61:2 0.0015730443553200002
230 *61:4 0.00129894673856
231 _316_:X 0.00067404883232
232 _375_:A0 0
233 *61:6 0
*RES
324 *61:1 _375_:A0 2.464285714285714
325 *61:2 *61:3 17.91071428571428
326 *61:4 *61:5 0.30357142857142855
327 _316_:X *61:5 6.982142857142857
328 *61:4 *61:6 13.142857142857142
329 _375_:A0 _375_:A0 0
330 *61:1 *61:2 0
331 *61:6 *61:3 0
332 _316_:X _316_:X 0
*END

*D_NET *62 0.00242822843552
*CONN
*I _373_:A0 I
*I _317_:X O
*CAP
234 _317_:X 0.00242822843552
235 _373_:A0 0
*RES
333 _317_:X _373_:A0 25.46428571428571
334 _373_:A0 _373_:A0 0
335 _317_:X _317_:X 0
*END

*D_NET *63 0.00032440251456
*CONN
*I _380_:X O
*I _318_:A I
*CAP
236 _318_:A 0.00028423114272
237 _380_:X 4.017137184e-05
*RES
336 _318_:A _380_:X 2.875
337 _380_:X _380_:X 0.30357142857142855
338 _318_:A _318_:A 0
339 _380_:X _380_:X 0
*END

*D_NET *64 0.00017934253836
*CONN
*I _371_:A0 I
*I _318_:X O
*CAP
238 *64:1 9.002024044000002e-05
239 _318_:X 8.932229792e-05
240 _371_:A0 0
241 *64:3 0
*RES
340 *64:1 *64:2 0.9107142857142857
341 _318_:X *64:3 0.8214285714285714
342 _371_:A0 _371_:A0 0
343 _371_:A0 *64:1 0
344 *64:3 *64:2 0
345 _318_:X _318_:X 0
*END

*D_NET *65 0.00021832430732
*CONN
*I _369_:A0 I
*I _319_:X O
*CAP
242 *65:1 9.002024044000002e-05
243 *65:3 0.00012830406688
244 _369_:A0 0
245 _319_:X 0
*RES
346 *65:1 *65:2 0.9107142857142857
347 *65:3 _319_:X 1.232142857142857
348 _369_:A0 _369_:A0 0
349 _369_:A0 *65:1 0
350 *65:3 *65:2 0
351 _319_:X _319_:X 0
*END

*D_NET *66 0.004241035509240001
*CONN
*I _367_:A0 I
*I _319_:B1 I
*I _317_:B1 I
*I _312_:B1 I
*I _310_:Y O
*CAP
246 *66:1 0.00110284829088
247 *66:2 0.00051374141612
248 _367_:A0 5.034052896000001e-05
249 *66:5 0.0008514516085200002
250 *66:7 0.0005181217564799999
251 *66:9 9.002024044000002e-05
252 *66:11 6.353766696000002e-05
253 *66:8 0.00044015821855999997
254 _312_:B1 4.017137184e-05
255 *66:15 0.00040117644959999997
256 *66:16 0.00016946796088000002
257 _310_:Y 0
258 *66:4 0
259 _319_:B1 0
260 _317_:B1 0
261 *66:13 0
*RES
352 *66:1 _310_:Y 11.5
353 *66:2 *66:3 5.767857142857142
354 _367_:A0 *66:4 0.4107142857142857
355 *66:5 *66:6 9.107142857142856
356 *66:7 *66:8 5.339285714285714
357 *66:9 *66:10 0.9107142857142857
358 *66:11 *66:12 0.6071428571428571
359 *66:8 *66:13 4.517857142857142
360 _312_:B1 *66:14 0.30357142857142855
361 *66:15 *66:14 4.107142857142857
362 *66:16 *66:17 1.8214285714285714
363 *66:5 *66:17 0.4107142857142857
364 _310_:Y _310_:Y 0
365 *66:1 *66:3 0
366 *66:4 *66:2 0
367 _367_:A0 _367_:A0 0
368 _319_:B1 _319_:B1 0
369 _319_:B1 *66:5 0
370 *66:8 *66:6 0
371 *66:7 *66:9 0
372 _310_:Y *66:10 0
373 _317_:B1 _317_:B1 0
374 _317_:B1 *66:12 0
375 *66:13 *66:11 0
376 _312_:B1 _312_:B1 0
377 *66:15 *66:16 0
*END

*D_NET *67 0.00070261478492
*CONN
*I _365_:A0 I
*I _318_:B I
*I _313_:Y O
*CAP
262 *67:1 6.353766696000002e-05
263 _313_:Y 0.00028423114272
264 *67:4 0.00035484597524
265 _318_:B 0
266 *67:3 0
267 _365_:A0 0
*RES
378 *67:1 *67:2 0.6071428571428571
379 _313_:Y *67:3 2.875
380 *67:4 *67:1 3.946428571428571
381 _318_:B _318_:B 0
382 _318_:B *67:2 0
383 *67:3 *67:1 0
384 _313_:Y _313_:Y 0
385 _365_:A0 _365_:A0 0
386 _365_:A0 *67:4 0
*END

*D_NET *68 0.0003352696142
*CONN
*I _363_:A0 I
*I _320_:X O
*CAP
268 *68:1 9.002024044000002e-05
269 _363_:A0 0.00024524937376
270 _320_:X 0
271 *68:3 0
*RES
387 *68:1 *68:2 0.9107142857142857
388 _363_:A0 *68:3 2.464285714285714
389 _320_:X _320_:X 0
390 _320_:X *68:1 0
391 *68:3 *68:2 0
392 _363_:A0 _363_:A0 0
*END

*D_NET *69 0.00149266598048
*CONN
*I _361_:A0 I
*I _314_:X O
*CAP
272 _361_:A0 0.00149266598048
273 _314_:X 0
*RES