* NGSPICE file created from digital_pll.ext - technology: sky130A

* Black-box entry subcircuit for sky130_fd_sc_hd__decap_4 abstract view
.subckt sky130_fd_sc_hd__decap_4 VGND VNB VPB VPWR
.ends

* Black-box entry subcircuit for sky130_fd_sc_hd__decap_8 abstract view
.subckt sky130_fd_sc_hd__decap_8 VGND VNB VPB VPWR
.ends

* Black-box entry subcircuit for sky130_fd_sc_hd__mux2_2 abstract view
.subckt sky130_fd_sc_hd__mux2_2 A0 A1 S VGND VNB VPB VPWR X
.ends

* Black-box entry subcircuit for sky130_fd_sc_hd__or2_1 abstract view
.subckt sky130_fd_sc_hd__or2_1 A B VGND VNB VPB VPWR X
.ends

* Black-box entry subcircuit for sky130_fd_sc_hd__decap_12 abstract view
.subckt sky130_fd_sc_hd__decap_12 VGND VNB VPB VPWR
.ends

* Black-box entry subcircuit for sky130_fd_sc_hd__clkinv_1 abstract view
.subckt sky130_fd_sc_hd__clkinv_1 A VGND VNB VPB VPWR Y
.ends

* Black-box entry subcircuit for sky130_fd_sc_hd__clkbuf_1 abstract view
.subckt sky130_fd_sc_hd__clkbuf_1 A VGND VNB VPB VPWR X
.ends

* Black-box entry subcircuit for sky130_fd_sc_hd__a32o_1 abstract view
.subckt sky130_fd_sc_hd__a32o_1 A1 A2 A3 B1 B2 VGND VNB VPB VPWR X
.ends

* Black-box entry subcircuit for sky130_fd_sc_hd__a22o_1 abstract view
.subckt sky130_fd_sc_hd__a22o_1 A1 A2 B1 B2 VGND VNB VPB VPWR X
.ends

* Black-box entry subcircuit for sky130_fd_sc_hd__einvp_1 abstract view
.subckt sky130_fd_sc_hd__einvp_1 A TE VGND VNB VPB VPWR Z
.ends

* Black-box entry subcircuit for sky130_fd_sc_hd__einvn_2 abstract view
.subckt sky130_fd_sc_hd__einvn_2 A TE_B VGND VNB VPB VPWR Z
.ends

* Black-box entry subcircuit for sky130_fd_sc_hd__fill_1 abstract view
.subckt sky130_fd_sc_hd__fill_1 VGND VNB VPB VPWR
.ends

* Black-box entry subcircuit for sky130_fd_sc_hd__decap_6 abstract view
.subckt sky130_fd_sc_hd__decap_6 VGND VNB VPB VPWR
.ends

* Black-box entry subcircuit for sky130_fd_sc_hd__tapvpwrvgnd_1 abstract view
.subckt sky130_fd_sc_hd__tapvpwrvgnd_1 VGND VPWR
.ends

* Black-box entry subcircuit for sky130_fd_sc_hd__fill_2 abstract view
.subckt sky130_fd_sc_hd__fill_2 VGND VNB VPB VPWR
.ends

* Black-box entry subcircuit for sky130_fd_sc_hd__clkbuf_2 abstract view
.subckt sky130_fd_sc_hd__clkbuf_2 A VGND VNB VPB VPWR X
.ends

* Black-box entry subcircuit for sky130_fd_sc_hd__mux2_1 abstract view
.subckt sky130_fd_sc_hd__mux2_1 A0 A1 S VGND VNB VPB VPWR X
.ends

* Black-box entry subcircuit for sky130_fd_sc_hd__or3_1 abstract view
.subckt sky130_fd_sc_hd__or3_1 A B C VGND VNB VPB VPWR X
.ends

* Black-box entry subcircuit for sky130_fd_sc_hd__decap_3 abstract view
.subckt sky130_fd_sc_hd__decap_3 VGND VNB VPB VPWR
.ends

* Black-box entry subcircuit for sky130_fd_sc_hd__inv_2 abstract view
.subckt sky130_fd_sc_hd__inv_2 A VGND VNB VPB VPWR Y
.ends

* Black-box entry subcircuit for sky130_fd_sc_hd__o22a_1 abstract view
.subckt sky130_fd_sc_hd__o22a_1 A1 A2 B1 B2 VGND VNB VPB VPWR X
.ends

* Black-box entry subcircuit for sky130_fd_sc_hd__einvn_4 abstract view
.subckt sky130_fd_sc_hd__einvn_4 A TE_B VGND VNB VPB VPWR Z
.ends

* Black-box entry subcircuit for sky130_fd_sc_hd__o21ai_1 abstract view
.subckt sky130_fd_sc_hd__o21ai_1 A1 A2 B1 VGND VNB VPB VPWR Y
.ends

* Black-box entry subcircuit for sky130_fd_sc_hd__o32a_1 abstract view
.subckt sky130_fd_sc_hd__o32a_1 A1 A2 A3 B1 B2 VGND VNB VPB VPWR X
.ends

* Black-box entry subcircuit for sky130_fd_sc_hd__nor3_2 abstract view
.subckt sky130_fd_sc_hd__nor3_2 A B C VGND VNB VPB VPWR Y
.ends

* Black-box entry subcircuit for sky130_fd_sc_hd__a31o_1 abstract view
.subckt sky130_fd_sc_hd__a31o_1 A1 A2 A3 B1 VGND VNB VPB VPWR X
.ends

* Black-box entry subcircuit for sky130_fd_sc_hd__a221o_1 abstract view
.subckt sky130_fd_sc_hd__a221o_1 A1 A2 B1 B2 C1 VGND VNB VPB VPWR X
.ends

* Black-box entry subcircuit for sky130_fd_sc_hd__a41o_4 abstract view
.subckt sky130_fd_sc_hd__a41o_4 A1 A2 A3 A4 B1 VGND VNB VPB VPWR X
.ends

* Black-box entry subcircuit for sky130_fd_sc_hd__or2_4 abstract view
.subckt sky130_fd_sc_hd__or2_4 A B VGND VNB VPB VPWR X
.ends

* Black-box entry subcircuit for sky130_fd_sc_hd__dfrtp_1 abstract view
.subckt sky130_fd_sc_hd__dfrtp_1 CLK D RESET_B VGND VNB VPB VPWR Q
.ends

* Black-box entry subcircuit for sky130_fd_sc_hd__a21o_1 abstract view
.subckt sky130_fd_sc_hd__a21o_1 A1 A2 B1 VGND VNB VPB VPWR X
.ends

* Black-box entry subcircuit for sky130_fd_sc_hd__buf_8 abstract view
.subckt sky130_fd_sc_hd__buf_8 A VGND VNB VPB VPWR X
.ends

* Black-box entry subcircuit for sky130_fd_sc_hd__o21a_1 abstract view
.subckt sky130_fd_sc_hd__o21a_1 A1 A2 B1 VGND VNB VPB VPWR X
.ends

* Black-box entry subcircuit for sky130_fd_sc_hd__nand2_1 abstract view
.subckt sky130_fd_sc_hd__nand2_1 A B VGND VNB VPB VPWR Y
.ends

* Black-box entry subcircuit for sky130_fd_sc_hd__o41a_1 abstract view
.subckt sky130_fd_sc_hd__o41a_1 A1 A2 A3 A4 B1 VGND VNB VPB VPWR X
.ends

* Black-box entry subcircuit for sky130_fd_sc_hd__a41o_2 abstract view
.subckt sky130_fd_sc_hd__a41o_2 A1 A2 A3 A4 B1 VGND VNB VPB VPWR X
.ends

* Black-box entry subcircuit for sky130_fd_sc_hd__einvp_4 abstract view
.subckt sky130_fd_sc_hd__einvp_4 A TE VGND VNB VPB VPWR Z
.ends

* Black-box entry subcircuit for sky130_fd_sc_hd__nand4_2 abstract view
.subckt sky130_fd_sc_hd__nand4_2 A B C D VGND VNB VPB VPWR Y
.ends

* Black-box entry subcircuit for sky130_fd_sc_hd__o221a_1 abstract view
.subckt sky130_fd_sc_hd__o221a_1 A1 A2 B1 B2 C1 VGND VNB VPB VPWR X
.ends

* Black-box entry subcircuit for sky130_fd_sc_hd__dfrtp_2 abstract view
.subckt sky130_fd_sc_hd__dfrtp_2 CLK D RESET_B VGND VNB VPB VPWR Q
.ends

* Black-box entry subcircuit for sky130_fd_sc_hd__a21boi_1 abstract view
.subckt sky130_fd_sc_hd__a21boi_1 A1 A2 B1_N VGND VNB VPB VPWR Y
.ends

* Black-box entry subcircuit for sky130_fd_sc_hd__a21bo_1 abstract view
.subckt sky130_fd_sc_hd__a21bo_1 A1 A2 B1_N VGND VNB VPB VPWR X
.ends

* Black-box entry subcircuit for sky130_fd_sc_hd__buf_6 abstract view
.subckt sky130_fd_sc_hd__buf_6 A VGND VNB VPB VPWR X
.ends

* Black-box entry subcircuit for sky130_fd_sc_hd__buf_1 abstract view
.subckt sky130_fd_sc_hd__buf_1 A VGND VNB VPB VPWR X
.ends

* Black-box entry subcircuit for sky130_fd_sc_hd__o2bb2a_1 abstract view
.subckt sky130_fd_sc_hd__o2bb2a_1 A1_N A2_N B1 B2 VGND VNB VPB VPWR X
.ends

* Black-box entry subcircuit for sky130_fd_sc_hd__a311o_1 abstract view
.subckt sky130_fd_sc_hd__a311o_1 A1 A2 A3 B1 C1 VGND VNB VPB VPWR X
.ends

* Black-box entry subcircuit for sky130_fd_sc_hd__inv_4 abstract view
.subckt sky130_fd_sc_hd__inv_4 A VGND VNB VPB VPWR Y
.ends

* Black-box entry subcircuit for sky130_fd_sc_hd__dfrbp_1 abstract view
.subckt sky130_fd_sc_hd__dfrbp_1 CLK D RESET_B VGND VNB VPB VPWR Q Q_N
.ends

* Black-box entry subcircuit for sky130_fd_sc_hd__and4_1 abstract view
.subckt sky130_fd_sc_hd__and4_1 A B C D VGND VNB VPB VPWR X
.ends

* Black-box entry subcircuit for sky130_fd_sc_hd__nor2_8 abstract view
.subckt sky130_fd_sc_hd__nor2_8 A B VGND VNB VPB VPWR Y
.ends

* Black-box entry subcircuit for sky130_fd_sc_hd__and2_1 abstract view
.subckt sky130_fd_sc_hd__and2_1 A B VGND VNB VPB VPWR X
.ends

* Black-box entry subcircuit for sky130_fd_sc_hd__a21oi_1 abstract view
.subckt sky130_fd_sc_hd__a21oi_1 A1 A2 B1 VGND VNB VPB VPWR Y
.ends

* Black-box entry subcircuit for sky130_fd_sc_hd__or2_2 abstract view
.subckt sky130_fd_sc_hd__or2_2 A B VGND VNB VPB VPWR X
.ends

* Black-box entry subcircuit for sky130_fd_sc_hd__clkinv_4 abstract view
.subckt sky130_fd_sc_hd__clkinv_4 A VGND VNB VPB VPWR Y
.ends

* Black-box entry subcircuit for sky130_fd_sc_hd__and3_1 abstract view
.subckt sky130_fd_sc_hd__and3_1 A B C VGND VNB VPB VPWR X
.ends

* Black-box entry subcircuit for sky130_fd_sc_hd__inv_1 abstract view
.subckt sky130_fd_sc_hd__inv_1 A VGND VNB VPB VPWR Y
.ends

* Black-box entry subcircuit for sky130_fd_sc_hd__a2bb2o_4 abstract view
.subckt sky130_fd_sc_hd__a2bb2o_4 A1_N A2_N B1 B2 VGND VNB VPB VPWR X
.ends

* Black-box entry subcircuit for sky130_fd_sc_hd__einvp_2 abstract view
.subckt sky130_fd_sc_hd__einvp_2 A TE VGND VNB VPB VPWR Z
.ends

* Black-box entry subcircuit for sky130_fd_sc_hd__o2bb2ai_1 abstract view
.subckt sky130_fd_sc_hd__o2bb2ai_1 A1_N A2_N B1 B2 VGND VNB VPB VPWR Y
.ends

* Black-box entry subcircuit for sky130_fd_sc_hd__clkinv_2 abstract view
.subckt sky130_fd_sc_hd__clkinv_2 A VGND VNB VPB VPWR Y
.ends

* Black-box entry subcircuit for sky130_fd_sc_hd__dfrbp_2 abstract view
.subckt sky130_fd_sc_hd__dfrbp_2 CLK D RESET_B VGND VNB VPB VPWR Q Q_N
.ends

* Black-box entry subcircuit for sky130_fd_sc_hd__clkinv_8 abstract view
.subckt sky130_fd_sc_hd__clkinv_8 A VGND VNB VPB VPWR Y
.ends

* Black-box entry subcircuit for sky130_fd_sc_hd__a221oi_2 abstract view
.subckt sky130_fd_sc_hd__a221oi_2 A1 A2 B1 B2 C1 VGND VNB VPB VPWR Y
.ends

* Black-box entry subcircuit for sky130_fd_sc_hd__or3_4 abstract view
.subckt sky130_fd_sc_hd__or3_4 A B C VGND VNB VPB VPWR X
.ends

* Black-box entry subcircuit for sky130_fd_sc_hd__nor2_2 abstract view
.subckt sky130_fd_sc_hd__nor2_2 A B VGND VNB VPB VPWR Y
.ends

* Black-box entry subcircuit for sky130_fd_sc_hd__conb_1 abstract view
.subckt sky130_fd_sc_hd__conb_1 VGND VNB VPB VPWR HI LO
.ends

* Black-box entry subcircuit for sky130_fd_sc_hd__a2bb2o_1 abstract view
.subckt sky130_fd_sc_hd__a2bb2o_1 A1_N A2_N B1 B2 VGND VNB VPB VPWR X
.ends

* Black-box entry subcircuit for sky130_fd_sc_hd__nor2_1 abstract view
.subckt sky130_fd_sc_hd__nor2_1 A B VGND VNB VPB VPWR Y
.ends

* Black-box entry subcircuit for sky130_fd_sc_hd__dfrtp_4 abstract view
.subckt sky130_fd_sc_hd__dfrtp_4 CLK D RESET_B VGND VNB VPB VPWR Q
.ends

.subckt digital_pll clockc clockd[0] clockd[1] clockd[2] clockd[3] clockp[0] clockp[1]
+ dco div[0] div[1] div[2] div[3] div[4] ext_trim[0] ext_trim[10] ext_trim[11] ext_trim[12]
+ ext_trim[13] ext_trim[14] ext_trim[15] ext_trim[16] ext_trim[17] ext_trim[18] ext_trim[19]
+ ext_trim[1] ext_trim[20] ext_trim[21] ext_trim[22] ext_trim[23] ext_trim[24] ext_trim[25]
+ ext_trim[2] ext_trim[3] ext_trim[4] ext_trim[5] ext_trim[6] ext_trim[7] ext_trim[8]
+ ext_trim[9] extclk_sel osc reset sel[0] sel[1] sel[2] VPWR VGND
XFILLER_22_188 VGND VGND VPWR VPWR sky130_fd_sc_hd__decap_4
XFILLER_22_177 VGND VGND VPWR VPWR sky130_fd_sc_hd__decap_8
XFILLER_22_166 VGND VGND VPWR VPWR sky130_fd_sc_hd__decap_4
XFILLER_22_144 VGND VGND VPWR VPWR sky130_fd_sc_hd__decap_4
XFILLER_26_30 VGND VGND VPWR VPWR sky130_fd_sc_hd__decap_8
X_363_ _320_/X _363_/A1 _376_/S VGND VGND VPWR VPWR _363_/X sky130_fd_sc_hd__mux2_2
X_294_ _294_/A _294_/B VGND VGND VPWR VPWR _309_/C sky130_fd_sc_hd__or2_1
XFILLER_13_188 VGND VGND VPWR VPWR sky130_fd_sc_hd__decap_4
XFILLER_13_133 VGND VGND VPWR VPWR sky130_fd_sc_hd__decap_12
XFILLER_9_115 VGND VGND VPWR VPWR sky130_fd_sc_hd__decap_12
Xringosc.dstage\[1\].id.delayint0 ringosc.dstage\[1\].id.delayen1/Z VGND VGND VPWR
+ VPWR ringosc.dstage\[1\].id.delayen0/A sky130_fd_sc_hd__clkinv_1
XFILLER_8_181 VGND VGND VPWR VPWR sky130_fd_sc_hd__decap_4
X_346_ _348_/A VGND VGND VPWR VPWR _346_/X sky130_fd_sc_hd__clkbuf_1
XFILLER_12_87 VGND VGND VPWR VPWR sky130_fd_sc_hd__decap_4
XFILLER_6_107 VGND VGND VPWR VPWR sky130_fd_sc_hd__decap_12
X_277_ _235_/Y _241_/Y _276_/X _390_/Q _235_/A VGND VGND VPWR VPWR _390_/D sky130_fd_sc_hd__a32o_1
XFILLER_5_184 VGND VGND VPWR VPWR sky130_fd_sc_hd__decap_8
XFILLER_23_53 VGND VGND VPWR VPWR sky130_fd_sc_hd__decap_4
X_200_ _400_/Q _284_/D _385_/Q _233_/B VGND VGND VPWR VPWR _400_/D sky130_fd_sc_hd__a22o_1
X_329_ _348_/A VGND VGND VPWR VPWR _329_/X sky130_fd_sc_hd__clkbuf_1
Xringosc.dstage\[11\].id.delayen1 ringosc.dstage\[11\].id.delayen1/A _355_/X VGND
+ VGND VPWR VPWR ringosc.dstage\[11\].id.delayen1/Z sky130_fd_sc_hd__einvp_1
XFILLER_20_87 VGND VGND VPWR VPWR sky130_fd_sc_hd__decap_4
Xringosc.dstage\[10\].id.delayenb0 ringosc.dstage\[10\].id.delayenb1/A _356_/X VGND
+ VGND VPWR VPWR ringosc.dstage\[10\].id.delayen0/Z sky130_fd_sc_hd__einvn_2
XFILLER_19_183 VGND VGND VPWR VPWR sky130_fd_sc_hd__decap_8
XFILLER_19_172 VGND VGND VPWR VPWR sky130_fd_sc_hd__decap_4
XFILLER_13_3 VGND VGND VPWR VPWR sky130_fd_sc_hd__fill_1
Xringosc.dstage\[9\].id.delayenb0 ringosc.dstage\[9\].id.delayenb1/A _358_/X VGND
+ VGND VPWR VPWR ringosc.dstage\[9\].id.delayen0/Z sky130_fd_sc_hd__einvn_2
XFILLER_6_45 VGND VGND VPWR VPWR sky130_fd_sc_hd__decap_4
XFILLER_31_53 VGND VGND VPWR VPWR sky130_fd_sc_hd__decap_4
XFILLER_25_142 VGND VGND VPWR VPWR sky130_fd_sc_hd__fill_1
XFILLER_15_87 VGND VGND VPWR VPWR sky130_fd_sc_hd__decap_4
XFILLER_15_43 VGND VGND VPWR VPWR sky130_fd_sc_hd__decap_6
XPHY_170 VGND VPWR sky130_fd_sc_hd__tapvpwrvgnd_1
XFILLER_31_112 VGND VGND VPWR VPWR sky130_fd_sc_hd__fill_2
Xoutput42 idiv8/D VGND VGND VPWR VPWR clockd[2] sky130_fd_sc_hd__clkbuf_2
XFILLER_22_134 VGND VGND VPWR VPWR sky130_fd_sc_hd__decap_8
X_362_ _305_/X _362_/A1 _379_/S VGND VGND VPWR VPWR _362_/X sky130_fd_sc_hd__mux2_1
X_293_ _395_/Q _392_/Q _315_/B VGND VGND VPWR VPWR _293_/X sky130_fd_sc_hd__or3_1
XFILLER_13_156 VGND VGND VPWR VPWR sky130_fd_sc_hd__decap_4
XFILLER_13_145 VGND VGND VPWR VPWR sky130_fd_sc_hd__decap_6
XFILLER_12_55 VGND VGND VPWR VPWR sky130_fd_sc_hd__decap_4
XFILLER_10_104 VGND VGND VPWR VPWR sky130_fd_sc_hd__decap_3
X_345_ _348_/A VGND VGND VPWR VPWR _345_/X sky130_fd_sc_hd__clkbuf_1
X_276_ _389_/Q _276_/B VGND VGND VPWR VPWR _276_/X sky130_fd_sc_hd__or2_1
X_328_ _348_/A VGND VGND VPWR VPWR _328_/X sky130_fd_sc_hd__clkbuf_1
X_259_ _259_/A VGND VGND VPWR VPWR _259_/Y sky130_fd_sc_hd__inv_2
XFILLER_0_25 VGND VGND VPWR VPWR sky130_fd_sc_hd__decap_4
XFILLER_2_144 VGND VGND VPWR VPWR sky130_fd_sc_hd__decap_4
XFILLER_2_188 VGND VGND VPWR VPWR sky130_fd_sc_hd__decap_4
XFILLER_9_78 VGND VGND VPWR VPWR sky130_fd_sc_hd__decap_4
XFILLER_18_98 VGND VGND VPWR VPWR sky130_fd_sc_hd__decap_4
XFILLER_18_87 VGND VGND VPWR VPWR sky130_fd_sc_hd__decap_4
XFILLER_29_42 VGND VGND VPWR VPWR sky130_fd_sc_hd__decap_12
XFILLER_20_44 VGND VGND VPWR VPWR sky130_fd_sc_hd__decap_4
XFILLER_28_151 VGND VGND VPWR VPWR sky130_fd_sc_hd__decap_8
Xringosc.dstage\[10\].id.delayenb1 ringosc.dstage\[10\].id.delayenb1/A _357_/X VGND
+ VGND VPWR VPWR ringosc.dstage\[10\].id.delayen1/Z sky130_fd_sc_hd__einvn_2
Xringosc.dstage\[9\].id.delayenb1 ringosc.dstage\[9\].id.delayenb1/A _359_/X VGND
+ VGND VPWR VPWR ringosc.dstage\[9\].id.delayen1/Z sky130_fd_sc_hd__einvn_2
XFILLER_15_11 VGND VGND VPWR VPWR sky130_fd_sc_hd__decap_3
XFILLER_31_179 VGND VGND VPWR VPWR sky130_fd_sc_hd__decap_4
XFILLER_31_157 VGND VGND VPWR VPWR sky130_fd_sc_hd__decap_12
XPHY_160 VGND VPWR sky130_fd_sc_hd__tapvpwrvgnd_1
XFILLER_15_77 VGND VGND VPWR VPWR sky130_fd_sc_hd__fill_1
Xoutput43 idiv16/D VGND VGND VPWR VPWR clockd[3] sky130_fd_sc_hd__clkbuf_2
XFILLER_26_87 VGND VGND VPWR VPWR sky130_fd_sc_hd__decap_4
XFILLER_26_43 VGND VGND VPWR VPWR sky130_fd_sc_hd__decap_4
X_292_ _395_/Q _292_/B VGND VGND VPWR VPWR _292_/X sky130_fd_sc_hd__or2_1
XFILLER_13_113 VGND VGND VPWR VPWR sky130_fd_sc_hd__fill_1
X_361_ _314_/X _361_/A1 _379_/S VGND VGND VPWR VPWR _361_/X sky130_fd_sc_hd__mux2_1
XFILLER_3_58 VGND VGND VPWR VPWR sky130_fd_sc_hd__decap_4
XFILLER_10_127 VGND VGND VPWR VPWR sky130_fd_sc_hd__fill_1
X_344_ _348_/A VGND VGND VPWR VPWR _344_/X sky130_fd_sc_hd__clkbuf_1
X_275_ _235_/Y _269_/X _274_/X _391_/Q _235_/A VGND VGND VPWR VPWR _391_/D sky130_fd_sc_hd__a32o_1
XFILLER_23_66 VGND VGND VPWR VPWR sky130_fd_sc_hd__fill_1
XFILLER_0_59 VGND VGND VPWR VPWR sky130_fd_sc_hd__decap_4
XFILLER_3_3 VGND VGND VPWR VPWR sky130_fd_sc_hd__decap_12
Xringosc.dstage\[4\].id.delayen0 ringosc.dstage\[4\].id.delayen0/A _368_/X VGND VGND
+ VPWR VPWR ringosc.dstage\[4\].id.delayen0/Z sky130_fd_sc_hd__einvp_1
XFILLER_9_35 VGND VGND VPWR VPWR sky130_fd_sc_hd__decap_8
X_258_ _395_/Q _239_/Y _313_/A _239_/A VGND VGND VPWR VPWR _259_/A sky130_fd_sc_hd__o22a_1
X_327_ _348_/A VGND VGND VPWR VPWR _327_/X sky130_fd_sc_hd__clkbuf_1
X_189_ _189_/A VGND VGND VPWR VPWR _221_/A sky130_fd_sc_hd__inv_2
XFILLER_18_55 VGND VGND VPWR VPWR sky130_fd_sc_hd__decap_4
XFILLER_1_80 VGND VGND VPWR VPWR sky130_fd_sc_hd__decap_8
XFILLER_29_65 VGND VGND VPWR VPWR sky130_fd_sc_hd__decap_6
XFILLER_29_54 VGND VGND VPWR VPWR sky130_fd_sc_hd__decap_3
XFILLER_6_25 VGND VGND VPWR VPWR sky130_fd_sc_hd__decap_4
XFILLER_6_69 VGND VGND VPWR VPWR sky130_fd_sc_hd__decap_8
Xoutput44 _349_/X VGND VGND VPWR VPWR clockp[0] sky130_fd_sc_hd__clkbuf_2
XFILLER_25_100 VGND VGND VPWR VPWR sky130_fd_sc_hd__decap_4
XFILLER_16_144 VGND VGND VPWR VPWR sky130_fd_sc_hd__decap_12
XFILLER_31_169 VGND VGND VPWR VPWR sky130_fd_sc_hd__fill_2
XPHY_161 VGND VPWR sky130_fd_sc_hd__tapvpwrvgnd_1
XPHY_150 VGND VPWR sky130_fd_sc_hd__tapvpwrvgnd_1
Xringosc.dstage\[10\].id.delaybuf0 ringosc.dstage\[9\].id.delayen0/Z VGND VGND VPWR
+ VPWR ringosc.dstage\[10\].id.delayenb1/A sky130_fd_sc_hd__clkbuf_2
Xringosc.dstage\[9\].id.delaybuf0 ringosc.dstage\[8\].id.delayen0/Z VGND VGND VPWR
+ VPWR ringosc.dstage\[9\].id.delayenb1/A sky130_fd_sc_hd__clkbuf_2
Xringosc.dstage\[5\].id.delayenb0 ringosc.dstage\[5\].id.delayenb1/A _366_/X VGND
+ VGND VPWR VPWR ringosc.ibufp10/A sky130_fd_sc_hd__einvn_4
X_291_ _395_/Q _315_/B VGND VGND VPWR VPWR _291_/X sky130_fd_sc_hd__or2_1
XFILLER_7_90 VGND VGND VPWR VPWR sky130_fd_sc_hd__decap_8
X_360_ _303_/X _360_/A1 _379_/S VGND VGND VPWR VPWR _360_/X sky130_fd_sc_hd__mux2_1
XFILLER_21_191 VGND VGND VPWR VPWR sky130_fd_sc_hd__fill_1
XFILLER_12_191 VGND VGND VPWR VPWR sky130_fd_sc_hd__fill_1
XFILLER_12_180 VGND VGND VPWR VPWR sky130_fd_sc_hd__decap_4
XFILLER_3_15 VGND VGND VPWR VPWR sky130_fd_sc_hd__decap_12
X_343_ _348_/A VGND VGND VPWR VPWR _343_/X sky130_fd_sc_hd__clkbuf_1
X_274_ _274_/A _274_/B VGND VGND VPWR VPWR _274_/X sky130_fd_sc_hd__or2_1
XFILLER_5_110 VGND VGND VPWR VPWR sky130_fd_sc_hd__decap_4
Xringosc.dstage\[4\].id.delayen1 ringosc.dstage\[4\].id.delayen1/A _369_/X VGND VGND
+ VPWR VPWR ringosc.dstage\[4\].id.delayen1/Z sky130_fd_sc_hd__einvp_1
XFILLER_0_49 VGND VGND VPWR VPWR sky130_fd_sc_hd__fill_2
XFILLER_2_102 VGND VGND VPWR VPWR sky130_fd_sc_hd__fill_1
XFILLER_2_135 VGND VGND VPWR VPWR sky130_fd_sc_hd__decap_8
X_188_ _389_/Q VGND VGND VPWR VPWR _188_/Y sky130_fd_sc_hd__inv_2
XFILLER_29_3 VGND VGND VPWR VPWR sky130_fd_sc_hd__decap_12
X_257_ _257_/A VGND VGND VPWR VPWR _257_/Y sky130_fd_sc_hd__inv_2
X_326_ _348_/A VGND VGND VPWR VPWR _326_/X sky130_fd_sc_hd__clkbuf_1
XFILLER_9_14 VGND VGND VPWR VPWR sky130_fd_sc_hd__decap_12
XFILLER_9_58 VGND VGND VPWR VPWR sky130_fd_sc_hd__decap_4
XFILLER_18_23 VGND VGND VPWR VPWR sky130_fd_sc_hd__decap_6
X_309_ _309_/A _311_/C _309_/C VGND VGND VPWR VPWR _313_/B sky130_fd_sc_hd__or3_1
XFILLER_20_13 VGND VGND VPWR VPWR sky130_fd_sc_hd__decap_4
XFILLER_20_24 VGND VGND VPWR VPWR sky130_fd_sc_hd__decap_4
XFILLER_1_92 VGND VGND VPWR VPWR sky130_fd_sc_hd__decap_4
XFILLER_28_186 VGND VGND VPWR VPWR sky130_fd_sc_hd__decap_6
XFILLER_28_142 VGND VGND VPWR VPWR sky130_fd_sc_hd__fill_1
XFILLER_28_120 VGND VGND VPWR VPWR sky130_fd_sc_hd__decap_4
XFILLER_20_68 VGND VGND VPWR VPWR sky130_fd_sc_hd__decap_4
XFILLER_6_15 VGND VGND VPWR VPWR sky130_fd_sc_hd__decap_6
XFILLER_19_153 VGND VGND VPWR VPWR sky130_fd_sc_hd__decap_4
XFILLER_19_131 VGND VGND VPWR VPWR sky130_fd_sc_hd__decap_12
XFILLER_31_34 VGND VGND VPWR VPWR sky130_fd_sc_hd__decap_12
XFILLER_25_167 VGND VGND VPWR VPWR sky130_fd_sc_hd__decap_4
Xoutput45 idiv2/CLK VGND VGND VPWR VPWR clockp[1] sky130_fd_sc_hd__clkbuf_2
XFILLER_31_148 VGND VGND VPWR VPWR sky130_fd_sc_hd__decap_6
XFILLER_31_115 VGND VGND VPWR VPWR sky130_fd_sc_hd__decap_12
XFILLER_31_104 VGND VGND VPWR VPWR sky130_fd_sc_hd__decap_8
XPHY_162 VGND VPWR sky130_fd_sc_hd__tapvpwrvgnd_1
XPHY_151 VGND VPWR sky130_fd_sc_hd__tapvpwrvgnd_1
XPHY_140 VGND VPWR sky130_fd_sc_hd__tapvpwrvgnd_1
XFILLER_16_156 VGND VGND VPWR VPWR sky130_fd_sc_hd__decap_6
XFILLER_11_3 VGND VGND VPWR VPWR sky130_fd_sc_hd__decap_3
Xringosc.dstage\[10\].id.delaybuf1 ringosc.dstage\[10\].id.delayenb1/A VGND VGND VPWR
+ VPWR ringosc.dstage\[10\].id.delayen1/A sky130_fd_sc_hd__clkbuf_1
Xringosc.dstage\[9\].id.delaybuf1 ringosc.dstage\[9\].id.delayenb1/A VGND VGND VPWR
+ VPWR ringosc.dstage\[9\].id.delayen1/A sky130_fd_sc_hd__clkbuf_1
Xringosc.dstage\[5\].id.delayenb1 ringosc.dstage\[5\].id.delayenb1/A _367_/X VGND
+ VGND VPWR VPWR ringosc.dstage\[5\].id.delayen1/Z sky130_fd_sc_hd__einvn_2
XFILLER_22_148 VGND VGND VPWR VPWR sky130_fd_sc_hd__fill_1
XFILLER_22_115 VGND VGND VPWR VPWR sky130_fd_sc_hd__decap_12
XFILLER_13_115 VGND VGND VPWR VPWR sky130_fd_sc_hd__decap_12
XFILLER_21_170 VGND VGND VPWR VPWR sky130_fd_sc_hd__fill_1
X_290_ _290_/A _315_/B VGND VGND VPWR VPWR _292_/B sky130_fd_sc_hd__or2_1
XFILLER_3_27 VGND VGND VPWR VPWR sky130_fd_sc_hd__decap_12
XFILLER_12_170 VGND VGND VPWR VPWR sky130_fd_sc_hd__decap_4
XFILLER_12_25 VGND VGND VPWR VPWR sky130_fd_sc_hd__decap_4
X_273_ _294_/A _235_/Y _272_/X VGND VGND VPWR VPWR _392_/D sky130_fd_sc_hd__o21ai_1
X_342_ _348_/A VGND VGND VPWR VPWR _342_/X sky130_fd_sc_hd__clkbuf_1
XFILLER_23_46 VGND VGND VPWR VPWR sky130_fd_sc_hd__decap_4
X_187_ _390_/Q VGND VGND VPWR VPWR _187_/Y sky130_fd_sc_hd__inv_2
X_256_ _267_/B _253_/A _267_/A _239_/A _310_/B VGND VGND VPWR VPWR _257_/A sky130_fd_sc_hd__o32a_1
X_325_ _325_/A _325_/B _325_/C VGND VGND VPWR VPWR _350_/S sky130_fd_sc_hd__nor3_2
XFILLER_9_26 VGND VGND VPWR VPWR sky130_fd_sc_hd__decap_3
XFILLER_18_68 VGND VGND VPWR VPWR sky130_fd_sc_hd__fill_1
X_239_ _239_/A VGND VGND VPWR VPWR _239_/Y sky130_fd_sc_hd__inv_2
X_308_ _393_/Q _392_/Q _394_/Q _395_/Q VGND VGND VPWR VPWR _308_/X sky130_fd_sc_hd__a31o_1
XFILLER_29_89 VGND VGND VPWR VPWR sky130_fd_sc_hd__decap_12
XFILLER_19_143 VGND VGND VPWR VPWR sky130_fd_sc_hd__decap_6
XFILLER_19_110 VGND VGND VPWR VPWR sky130_fd_sc_hd__decap_4
XFILLER_31_68 VGND VGND VPWR VPWR sky130_fd_sc_hd__decap_4
XFILLER_31_46 VGND VGND VPWR VPWR sky130_fd_sc_hd__decap_4
XFILLER_31_13 VGND VGND VPWR VPWR sky130_fd_sc_hd__fill_1
XFILLER_25_113 VGND VGND VPWR VPWR sky130_fd_sc_hd__fill_1
XFILLER_15_69 VGND VGND VPWR VPWR sky130_fd_sc_hd__decap_8
XFILLER_15_58 VGND VGND VPWR VPWR sky130_fd_sc_hd__decap_4
XPHY_163 VGND VPWR sky130_fd_sc_hd__tapvpwrvgnd_1
XPHY_152 VGND VPWR sky130_fd_sc_hd__tapvpwrvgnd_1
XPHY_141 VGND VPWR sky130_fd_sc_hd__tapvpwrvgnd_1
XPHY_130 VGND VPWR sky130_fd_sc_hd__tapvpwrvgnd_1
XFILLER_22_127 VGND VGND VPWR VPWR sky130_fd_sc_hd__decap_4
XFILLER_13_127 VGND VGND VPWR VPWR sky130_fd_sc_hd__fill_1
XFILLER_13_105 VGND VGND VPWR VPWR sky130_fd_sc_hd__decap_8
XFILLER_3_39 VGND VGND VPWR VPWR sky130_fd_sc_hd__decap_12
XFILLER_9_109 VGND VGND VPWR VPWR sky130_fd_sc_hd__decap_4
XFILLER_12_160 VGND VGND VPWR VPWR sky130_fd_sc_hd__decap_6
Xringosc.dstage\[5\].id.delaybuf0 ringosc.dstage\[4\].id.delayen0/Z VGND VGND VPWR
+ VPWR ringosc.dstage\[5\].id.delayenb1/A sky130_fd_sc_hd__clkbuf_2
X_272_ _247_/Y _271_/A _247_/A _271_/Y _235_/A VGND VGND VPWR VPWR _272_/X sky130_fd_sc_hd__a221o_1
X_341_ _348_/A VGND VGND VPWR VPWR _341_/X sky130_fd_sc_hd__clkbuf_1
XFILLER_12_48 VGND VGND VPWR VPWR sky130_fd_sc_hd__decap_4
Xringosc.dstage\[1\].id.delayenb0 ringosc.dstage\[1\].id.delayenb1/A _374_/X VGND
+ VGND VPWR VPWR ringosc.dstage\[1\].id.delayen0/Z sky130_fd_sc_hd__einvn_2
XFILLER_10_119 VGND VGND VPWR VPWR sky130_fd_sc_hd__decap_8
XFILLER_5_134 VGND VGND VPWR VPWR sky130_fd_sc_hd__decap_12
XFILLER_5_167 VGND VGND VPWR VPWR sky130_fd_sc_hd__decap_4
Xringosc.dstage\[8\].id.delayint0 ringosc.dstage\[8\].id.delayen1/Z VGND VGND VPWR
+ VPWR ringosc.dstage\[8\].id.delayen0/A sky130_fd_sc_hd__clkinv_1
XFILLER_23_58 VGND VGND VPWR VPWR sky130_fd_sc_hd__decap_8
XFILLER_4_60 VGND VGND VPWR VPWR sky130_fd_sc_hd__decap_6
X_255_ _315_/B VGND VGND VPWR VPWR _310_/B sky130_fd_sc_hd__inv_2
X_186_ _391_/Q VGND VGND VPWR VPWR _294_/B sky130_fd_sc_hd__inv_2
XFILLER_2_126 VGND VGND VPWR VPWR sky130_fd_sc_hd__decap_6
X_324_ _325_/A _325_/B _324_/C VGND VGND VPWR VPWR _351_/S sky130_fd_sc_hd__nor3_2
XFILLER_18_14 VGND VGND VPWR VPWR sky130_fd_sc_hd__decap_4
X_238_ _218_/Y _221_/X _237_/X _236_/Y _217_/Y VGND VGND VPWR VPWR _239_/A sky130_fd_sc_hd__a41o_4
X_307_ _392_/Q _391_/Q _297_/A _299_/Y VGND VGND VPWR VPWR _307_/X sky130_fd_sc_hd__a31o_1
XFILLER_29_35 VGND VGND VPWR VPWR sky130_fd_sc_hd__decap_4
XFILLER_28_144 VGND VGND VPWR VPWR sky130_fd_sc_hd__decap_4
XFILLER_10_70 VGND VGND VPWR VPWR sky130_fd_sc_hd__decap_12
XFILLER_31_58 VGND VGND VPWR VPWR sky130_fd_sc_hd__decap_4
XFILLER_25_158 VGND VGND VPWR VPWR sky130_fd_sc_hd__decap_6
XFILLER_15_26 VGND VGND VPWR VPWR sky130_fd_sc_hd__decap_12
XPHY_164 VGND VPWR sky130_fd_sc_hd__tapvpwrvgnd_1
XPHY_153 VGND VPWR sky130_fd_sc_hd__tapvpwrvgnd_1
XPHY_142 VGND VPWR sky130_fd_sc_hd__tapvpwrvgnd_1
XPHY_131 VGND VPWR sky130_fd_sc_hd__tapvpwrvgnd_1
XPHY_120 VGND VPWR sky130_fd_sc_hd__tapvpwrvgnd_1
XFILLER_22_106 VGND VGND VPWR VPWR sky130_fd_sc_hd__fill_1
XPHY_0 VGND VGND VPWR VPWR sky130_fd_sc_hd__decap_3
XFILLER_26_58 VGND VGND VPWR VPWR sky130_fd_sc_hd__fill_1
XFILLER_21_183 VGND VGND VPWR VPWR sky130_fd_sc_hd__decap_8
XFILLER_21_172 VGND VGND VPWR VPWR sky130_fd_sc_hd__decap_4
XFILLER_8_132 VGND VGND VPWR VPWR sky130_fd_sc_hd__decap_4
Xringosc.dstage\[1\].id.delayenb1 ringosc.dstage\[1\].id.delayenb1/A _375_/X VGND
+ VGND VPWR VPWR ringosc.dstage\[1\].id.delayen1/Z sky130_fd_sc_hd__einvn_2
XFILLER_12_38 VGND VGND VPWR VPWR sky130_fd_sc_hd__decap_3
Xringosc.dstage\[5\].id.delaybuf1 ringosc.dstage\[5\].id.delayenb1/A VGND VGND VPWR
+ VPWR ringosc.dstage\[5\].id.delayen1/A sky130_fd_sc_hd__clkbuf_1
X_340_ _348_/A VGND VGND VPWR VPWR _340_/X sky130_fd_sc_hd__clkbuf_1
X_271_ _271_/A VGND VGND VPWR VPWR _271_/Y sky130_fd_sc_hd__inv_2
XFILLER_5_146 VGND VGND VPWR VPWR sky130_fd_sc_hd__decap_4
XFILLER_23_15 VGND VGND VPWR VPWR sky130_fd_sc_hd__decap_12
Xringosc.dstage\[1\].id.delayen0 ringosc.dstage\[1\].id.delayen0/A _374_/X VGND VGND
+ VPWR VPWR ringosc.dstage\[1\].id.delayen0/Z sky130_fd_sc_hd__einvp_1
XFILLER_4_72 VGND VGND VPWR VPWR sky130_fd_sc_hd__decap_12
X_185_ _392_/Q VGND VGND VPWR VPWR _294_/A sky130_fd_sc_hd__inv_2
X_254_ _394_/Q _393_/Q VGND VGND VPWR VPWR _315_/B sky130_fd_sc_hd__or2_4
XFILLER_2_116 VGND VGND VPWR VPWR sky130_fd_sc_hd__decap_4
X_323_ _325_/A _323_/B _325_/C VGND VGND VPWR VPWR _352_/S sky130_fd_sc_hd__nor3_2
XFILLER_27_3 VGND VGND VPWR VPWR sky130_fd_sc_hd__fill_2
X_237_ _237_/A _237_/B _237_/C VGND VGND VPWR VPWR _237_/X sky130_fd_sc_hd__or3_1
X_306_ _315_/B _306_/B _395_/Q VGND VGND VPWR VPWR _306_/X sky130_fd_sc_hd__or3_1
XFILLER_29_58 VGND VGND VPWR VPWR sky130_fd_sc_hd__decap_4
XFILLER_20_38 VGND VGND VPWR VPWR sky130_fd_sc_hd__fill_2
XFILLER_19_123 VGND VGND VPWR VPWR sky130_fd_sc_hd__fill_1
XFILLER_19_101 VGND VGND VPWR VPWR sky130_fd_sc_hd__fill_2
XFILLER_10_82 VGND VGND VPWR VPWR sky130_fd_sc_hd__decap_4
XFILLER_25_126 VGND VGND VPWR VPWR sky130_fd_sc_hd__decap_12
XFILLER_25_115 VGND VGND VPWR VPWR sky130_fd_sc_hd__decap_4
XFILLER_15_49 VGND VGND VPWR VPWR sky130_fd_sc_hd__fill_1
XPHY_165 VGND VPWR sky130_fd_sc_hd__tapvpwrvgnd_1
XPHY_154 VGND VPWR sky130_fd_sc_hd__tapvpwrvgnd_1
XPHY_143 VGND VPWR sky130_fd_sc_hd__tapvpwrvgnd_1
XPHY_132 VGND VPWR sky130_fd_sc_hd__tapvpwrvgnd_1
XPHY_121 VGND VPWR sky130_fd_sc_hd__tapvpwrvgnd_1
XFILLER_16_104 VGND VGND VPWR VPWR sky130_fd_sc_hd__decap_4
XPHY_110 VGND VPWR sky130_fd_sc_hd__tapvpwrvgnd_1
XPHY_1 VGND VGND VPWR VPWR sky130_fd_sc_hd__decap_3
XFILLER_26_15 VGND VGND VPWR VPWR sky130_fd_sc_hd__decap_12
XFILLER_8_144 VGND VGND VPWR VPWR sky130_fd_sc_hd__decap_4
XFILLER_8_188 VGND VGND VPWR VPWR sky130_fd_sc_hd__decap_4
X_270_ _294_/B _239_/A _269_/X VGND VGND VPWR VPWR _271_/A sky130_fd_sc_hd__o21ai_1
XFILLER_5_103 VGND VGND VPWR VPWR sky130_fd_sc_hd__decap_4
X_399_ _349_/A _399_/D _328_/X VGND VGND VPWR VPWR _399_/Q sky130_fd_sc_hd__dfrtp_1
Xringosc.dstage\[1\].id.delayen1 ringosc.dstage\[1\].id.delayen1/A _375_/X VGND VGND
+ VPWR VPWR ringosc.dstage\[1\].id.delayen1/Z sky130_fd_sc_hd__einvp_1
XFILLER_4_84 VGND VGND VPWR VPWR sky130_fd_sc_hd__fill_2
XFILLER_4_95 VGND VGND VPWR VPWR sky130_fd_sc_hd__fill_2
XFILLER_23_27 VGND VGND VPWR VPWR sky130_fd_sc_hd__decap_12
Xringosc.dstage\[1\].id.delaybuf0 ringosc.dstage\[0\].id.delayen0/Z VGND VGND VPWR
+ VPWR ringosc.dstage\[1\].id.delayenb1/A sky130_fd_sc_hd__clkbuf_2
X_322_ _325_/A _323_/B _324_/C VGND VGND VPWR VPWR _353_/S sky130_fd_sc_hd__nor3_2
X_253_ _253_/A VGND VGND VPWR VPWR _253_/Y sky130_fd_sc_hd__inv_2
X_184_ _393_/Q VGND VGND VPWR VPWR _311_/C sky130_fd_sc_hd__inv_2
XFILLER_13_93 VGND VGND VPWR VPWR sky130_fd_sc_hd__decap_12
Xringosc.dstage\[4\].id.delayint0 ringosc.dstage\[4\].id.delayen1/Z VGND VGND VPWR
+ VPWR ringosc.dstage\[4\].id.delayen0/A sky130_fd_sc_hd__clkinv_1
XFILLER_1_172 VGND VGND VPWR VPWR sky130_fd_sc_hd__decap_4
X_236_ _230_/Y _231_/X _226_/Y VGND VGND VPWR VPWR _236_/Y sky130_fd_sc_hd__o21ai_1
X_305_ _394_/Q _393_/Q _290_/A _395_/Q VGND VGND VPWR VPWR _305_/X sky130_fd_sc_hd__a31o_1
XFILLER_29_15 VGND VGND VPWR VPWR sky130_fd_sc_hd__decap_12
XFILLER_20_28 VGND VGND VPWR VPWR sky130_fd_sc_hd__fill_1
XFILLER_28_179 VGND VGND VPWR VPWR sky130_fd_sc_hd__decap_4
X_219_ _387_/Q _402_/Q _206_/Y VGND VGND VPWR VPWR _219_/X sky130_fd_sc_hd__a21o_1
XFILLER_19_168 VGND VGND VPWR VPWR sky130_fd_sc_hd__decap_3
XFILLER_25_138 VGND VGND VPWR VPWR sky130_fd_sc_hd__decap_4
XPHY_100 VGND VPWR sky130_fd_sc_hd__tapvpwrvgnd_1
Xringosc.dstage\[9\].id.delayen0 ringosc.dstage\[9\].id.delayen0/A _358_/X VGND VGND
+ VPWR VPWR ringosc.dstage\[9\].id.delayen0/Z sky130_fd_sc_hd__einvp_1
XPHY_166 VGND VPWR sky130_fd_sc_hd__tapvpwrvgnd_1
XPHY_155 VGND VPWR sky130_fd_sc_hd__tapvpwrvgnd_1
XPHY_144 VGND VPWR sky130_fd_sc_hd__tapvpwrvgnd_1
XPHY_133 VGND VPWR sky130_fd_sc_hd__tapvpwrvgnd_1
XFILLER_21_93 VGND VGND VPWR VPWR sky130_fd_sc_hd__decap_4
XPHY_122 VGND VPWR sky130_fd_sc_hd__tapvpwrvgnd_1
XPHY_111 VGND VPWR sky130_fd_sc_hd__tapvpwrvgnd_1
XPHY_2 VGND VGND VPWR VPWR sky130_fd_sc_hd__decap_3
XFILLER_26_38 VGND VGND VPWR VPWR sky130_fd_sc_hd__fill_1
XFILLER_26_27 VGND VGND VPWR VPWR sky130_fd_sc_hd__fill_2