*SPEF "IEEE 1481-1998"
*DESIGN "digital_pll"
*DATE "Wed Jun 16 14:32:37 2021"
*VENDOR "AUC CSCE Department"
*PROGRAM "SPEF Extractor"
*VERSION "1.0"
*DESIGN_FLOW "PIN_CAP NONE"
*DIVIDER /
*DELIMITER :
*BUS_DELIMITER []
*T_UNIT 1.00000 NS
*C_UNIT 1.00000 PF
*R_UNIT 1.00000 OHM
*L_UNIT 1.00000 HENRY


*NAME_MAP
*0 clockp[0]
*1 clockp[1]
*2 dco
*3 div[0]
*4 div[1]
*5 div[2]
*6 div[3]
*7 div[4]
*8 enable
*9 ext_trim[0]
*10 ext_trim[10]
*11 ext_trim[11]
*12 ext_trim[12]
*13 ext_trim[13]
*14 ext_trim[14]
*15 ext_trim[15]
*16 ext_trim[16]
*17 ext_trim[17]
*18 ext_trim[18]
*19 ext_trim[19]
*20 ext_trim[1]
*21 ext_trim[20]
*22 ext_trim[21]
*23 ext_trim[22]
*24 ext_trim[23]
*25 ext_trim[24]
*26 ext_trim[25]
*27 ext_trim[2]
*28 ext_trim[3]
*29 ext_trim[4]
*30 ext_trim[5]
*31 ext_trim[6]
*32 ext_trim[7]
*33 ext_trim[8]
*34 ext_trim[9]
*35 osc
*36 resetb
*37 _000_
*38 _001_
*39 _002_
*40 _003_
*41 _004_
*42 _005_
*43 _006_
*44 _007_
*45 _008_
*46 _009_
*47 _010_
*48 _011_
*49 _012_
*50 _013_
*51 _014_
*52 _015_
*53 _016_
*54 _017_
*55 _018_
*56 _019_
*57 _020_
*58 _021_
*59 _022_
*60 _023_
*61 _024_
*62 _025_
*63 _026_
*64 _027_
*65 _028_
*66 _029_
*67 _030_
*68 _031_
*69 _032_
*70 _033_
*71 _034_
*72 _035_
*73 _036_
*74 _037_
*75 _038_
*76 _039_
*77 _040_
*78 _041_
*79 _042_
*80 _043_
*81 _044_
*82 _045_
*83 _046_
*84 _047_
*85 _048_
*86 _049_
*87 _050_
*88 _051_
*89 _052_
*90 _053_
*91 _054_
*92 _055_
*93 _056_
*94 _057_
*95 _058_
*96 _059_
*97 _060_
*98 _061_
*99 _062_
*100 _063_
*101 _064_
*102 _065_
*103 _066_
*104 _067_
*105 _068_
*106 _069_
*107 _070_
*108 _071_
*109 _072_
*110 _073_
*111 _074_
*112 _075_
*113 _076_
*114 _077_
*115 _078_
*116 _079_
*117 _080_
*118 _081_
*119 _082_
*120 _083_
*121 _084_
*122 _085_
*123 _086_
*124 _087_
*125 _088_
*126 _089_
*127 _090_
*128 _091_
*129 _092_
*130 _093_
*131 _094_
*132 _095_
*133 _096_
*134 _097_
*135 _098_
*136 _099_
*137 _100_
*138 _101_
*139 _102_
*140 _103_
*141 _104_
*142 _105_
*143 _106_
*144 _107_
*145 _108_
*146 _109_
*147 _110_
*148 _111_
*149 _112_
*150 _113_
*151 _114_
*152 _115_
*153 _116_
*154 _117_
*155 _118_
*156 _119_
*157 _120_
*158 _121_
*159 _122_
*160 _123_
*161 _124_
*162 _125_
*163 _126_
*164 _127_
*165 _128_
*166 _129_
*167 _130_
*168 _131_
*169 _132_
*170 _133_
*171 _134_
*172 _135_
*173 _136_
*174 _137_
*175 _138_
*176 _139_
*177 _140_
*178 _141_
*179 _142_
*180 _143_
*181 _144_
*182 _145_
*183 _146_
*184 _147_
*185 _148_
*186 _149_
*187 _150_
*188 _151_
*189 _152_
*190 _153_
*191 _154_
*192 _155_
*193 _156_
*194 _157_
*195 _158_
*196 _159_
*197 _160_
*198 _161_
*199 _162_
*200 _163_
*201 pll_control.clock
*202 pll_control.count0\[0\]
*203 pll_control.count0\[1\]
*204 pll_control.count0\[2\]
*205 pll_control.count0\[3\]
*206 pll_control.count0\[4\]
*207 pll_control.count1\[0\]
*208 pll_control.count1\[1\]
*209 pll_control.count1\[2\]
*210 pll_control.count1\[3\]
*211 pll_control.count1\[4\]
*212 pll_control.oscbuf\[0\]
*213 pll_control.oscbuf\[1\]
*214 pll_control.oscbuf\[2\]
*215 pll_control.prep\[0\]
*216 pll_control.prep\[1\]
*217 pll_control.prep\[2\]
*218 pll_control.tint\[0\]
*219 pll_control.tint\[1\]
*220 pll_control.tint\[2\]
*221 pll_control.tint\[3\]
*222 pll_control.tint\[4\]
*223 pll_control.tval\[0\]
*224 pll_control.tval\[1\]
*225 ringosc.c\[0\]
*226 ringosc.c\[1\]
*227 ringosc.dstage\[0\].id.d0
*228 ringosc.dstage\[0\].id.d1
*229 ringosc.dstage\[0\].id.d2
*230 ringosc.dstage\[0\].id.in
*231 ringosc.dstage\[0\].id.out
*232 ringosc.dstage\[0\].id.trim\[0\]
*233 ringosc.dstage\[0\].id.trim\[1\]
*234 ringosc.dstage\[0\].id.ts
*235 ringosc.dstage\[10\].id.d0
*236 ringosc.dstage\[10\].id.d1
*237 ringosc.dstage\[10\].id.d2
*238 ringosc.dstage\[10\].id.in
*239 ringosc.dstage\[10\].id.out
*240 ringosc.dstage\[10\].id.trim\[0\]
*241 ringosc.dstage\[10\].id.trim\[1\]
*242 ringosc.dstage\[10\].id.ts
*243 ringosc.dstage\[11\].id.d0
*244 ringosc.dstage\[11\].id.d1
*245 ringosc.dstage\[11\].id.d2
*246 ringosc.dstage\[11\].id.out
*247 ringosc.dstage\[11\].id.trim\[0\]
*248 ringosc.dstage\[11\].id.trim\[1\]
*249 ringosc.dstage\[11\].id.ts
*250 ringosc.dstage\[1\].id.d0
*251 ringosc.dstage\[1\].id.d1
*252 ringosc.dstage\[1\].id.d2
*253 ringosc.dstage\[1\].id.out
*254 ringosc.dstage\[1\].id.trim\[0\]
*255 ringosc.dstage\[1\].id.trim\[1\]
*256 ringosc.dstage\[1\].id.ts
*257 ringosc.dstage\[2\].id.d0
*258 ringosc.dstage\[2\].id.d1
*259 ringosc.dstage\[2\].id.d2
*260 ringosc.dstage\[2\].id.out
*261 ringosc.dstage\[2\].id.trim\[0\]
*262 ringosc.dstage\[2\].id.trim\[1\]
*263 ringosc.dstage\[2\].id.ts
*264 ringosc.dstage\[3\].id.d0
*265 ringosc.dstage\[3\].id.d1
*266 ringosc.dstage\[3\].id.d2
*267 ringosc.dstage\[3\].id.out
*268 ringosc.dstage\[3\].id.trim\[0\]
*269 ringosc.dstage\[3\].id.trim\[1\]
*270 ringosc.dstage\[3\].id.ts
*271 ringosc.dstage\[4\].id.d0
*272 ringosc.dstage\[4\].id.d1
*273 ringosc.dstage\[4\].id.d2
*274 ringosc.dstage\[4\].id.out
*275 ringosc.dstage\[4\].id.trim\[0\]
*276 ringosc.dstage\[4\].id.trim\[1\]
*277 ringosc.dstage\[4\].id.ts
*278 ringosc.dstage\[5\].id.d0
*279 ringosc.dstage\[5\].id.d1
*280 ringosc.dstage\[5\].id.d2
*281 ringosc.dstage\[5\].id.out
*282 ringosc.dstage\[5\].id.trim\[0\]
*283 ringosc.dstage\[5\].id.trim\[1\]
*284 ringosc.dstage\[5\].id.ts
*285 ringosc.dstage\[6\].id.d0
*286 ringosc.dstage\[6\].id.d1
*287 ringosc.dstage\[6\].id.d2
*288 ringosc.dstage\[6\].id.out
*289 ringosc.dstage\[6\].id.trim\[0\]
*290 ringosc.dstage\[6\].id.trim\[1\]
*291 ringosc.dstage\[6\].id.ts
*292 ringosc.dstage\[7\].id.d0
*293 ringosc.dstage\[7\].id.d1
*294 ringosc.dstage\[7\].id.d2
*295 ringosc.dstage\[7\].id.out
*296 ringosc.dstage\[7\].id.trim\[0\]
*297 ringosc.dstage\[7\].id.trim\[1\]
*298 ringosc.dstage\[7\].id.ts
*299 ringosc.dstage\[8\].id.d0
*300 ringosc.dstage\[8\].id.d1
*301 ringosc.dstage\[8\].id.d2
*302 ringosc.dstage\[8\].id.out
*303 ringosc.dstage\[8\].id.trim\[0\]
*304 ringosc.dstage\[8\].id.trim\[1\]
*305 ringosc.dstage\[8\].id.ts
*306 ringosc.dstage\[9\].id.d0
*307 ringosc.dstage\[9\].id.d1
*308 ringosc.dstage\[9\].id.d2
*309 ringosc.dstage\[9\].id.trim\[0\]
*310 ringosc.dstage\[9\].id.trim\[1\]
*311 ringosc.dstage\[9\].id.ts
*312 ringosc.iss.ctrl0
*313 ringosc.iss.d0
*314 ringosc.iss.d1
*315 ringosc.iss.d2
*316 ringosc.iss.one
*317 ringosc.iss.reset
*318 ringosc.iss.trim\[0\]
*319 ringosc.iss.trim\[1\]
*320 net1
*321 net2
*322 net3
*323 net4
*324 net5
*325 net6
*326 net7
*327 net8
*328 net9
*329 net10
*330 net11
*331 net12
*332 net13
*333 net14
*334 net15
*335 net16
*336 net17
*337 net18
*338 net19
*339 net20
*340 net21
*341 net22
*342 net23
*343 net24
*344 net25
*345 net26
*346 net27
*347 net28
*348 net29
*349 net30
*350 net31
*351 net32
*352 net33
*353 net34
*354 net35
*355 net36
*356 net37
*357 net38

*D_NET *0 0.00063291299678
*CONN
*P clockp[0] O
*I output36:X O
*CAP
0 *0:1 0.00063291299678
1 output36:X 0
*RES
0 *0:1 *0:2 7.133928571428571
1 output36:X output36:X 0
2 output36:X *0:2 0
*END

*D_NET *1 0.00063291299678
*CONN
*P clockp[1] O
*I output37:X O
*CAP
2 *1:1 0.00063291299678
3 output37:X 0
*RES
3 *1:1 *1:2 7.133928571428571
4 output37:X output37:X 0
5 output37:X *1:1 0
*END

*D_NET *2 0.00065939557026
*CONN
*P dco I
*I input1:A I
*CAP
4 *2:1 0.00065939557026
5 input1:A 0
*RES
6 *2:1 *2:2 7.437499999999999
7 input1:A input1:A 0
8 input1:A *2:1 0
*END

*D_NET *3 0.00074871786818
*CONN
*P div[0] I
*I input2:A I
*CAP
6 *3:1 8.932229792e-05
7 *3:2 0.00065939557026
8 input2:A 0
*RES
9 *3:1 input2:A 0.8214285714285714
10 *3:2 *3:3 7.437499999999999
11 input2:A input2:A 0
12 *3:1 *3:2 0
*END

*D_NET *4 0.0008730756878
*CONN
*P div[1] I
*I input3:A I
*CAP
9 *4:1 0.00047401755590000005
10 *4:3 0.00039905813189999997
11 input3:A 0
*RES
13 *4:1 *4:2 5.3125
14 *4:3 *4:4 0.6846333333333334
15 input3:A input3:A 0
16 input3:A *4:2 0
17 *4:1 *4:3 0
*END

*D_NET *5 0.0006747629067200001
*CONN
*P div[2] I
*I input4:A I
*CAP
12 *5:1 0.0003596407917
13 *5:3 0.00031512211502
14 input4:A 0
*RES
18 *5:1 *5:2 0.6125666666666667
19 *5:3 *5:4 3.4910714285714284
20 *5:3 *5:2 0
21 input4:A input4:A 0
22 input4:A *5:4 0
*END

*D_NET *6 0.0006858781437400002
*CONN
*P div[3] I
*I input5:A I
*CAP
15 *6:1 0.0006858781437400002
16 input5:A 0
*RES
23 *6:1 *6:2 7.741071428571428
24 input5:A input5:A 0
25 input5:A *6:2 0
*END

*D_NET *7 0.0007752004416600002
*CONN
*P div[4] I
*I input6:A I
*CAP
17 *7:1 0.0006858781437400002
18 *7:3 8.932229792e-05
19 input6:A 0
*RES
26 *7:1 *7:2 7.741071428571428
27 *7:3 input6:A 0.8214285714285714
28 *7:3 *7:2 0
29 input6:A input6:A 0
*END

*D_NET *8 0.0009171441395
*CONN
*P enable I
*I input7:A I
*CAP
20 *8:1 0.00063291299678
21 input7:A 0.00028423114272
22 *8:3 0
*RES
30 *8:1 *8:2 7.133928571428571
31 input7:A *8:3 2.875
32 *8:3 *8:1 0
33 input7:A input7:A 0
*END

*D_NET *9 0.00074871786818
*CONN
*P ext_trim[0] I
*I input8:A I
*CAP
23 *9:1 8.932229792e-05
24 *9:2 0.00065939557026
25 input8:A 0
*RES
34 *9:1 input8:A 0.8214285714285714
35 *9:2 *9:3 7.437499999999999
36 input8:A input8:A 0
37 *9:1 *9:2 0
*END

*D_NET *10 0.0005688326128
*CONN
*P ext_trim[10] I
*I input9:A I
*CAP
26 *10:1 0.0003596407917
27 *10:3 0.00020919182110000001
28 input9:A 0
*RES
38 *10:1 *10:2 0.6125666666666667
39 *10:3 *10:4 2.276785714285714
40 *10:3 *10:2 0
41 input9:A input9:A 0
42 input9:A *10:4 0
*END

*D_NET *11 0.00108705459334
*CONN
*P ext_trim[11] I
*I input10:A I
*CAP
29 *11:1 0.0006858781437400002
30 *11:3 0.00040117644959999997
31 input10:A 0
*RES
43 *11:1 *11:2 7.741071428571428
44 *11:3 input10:A 4.107142857142857
45 *11:3 *11:2 0
46 input10:A input10:A 0
*END

*D_NET *12 0.00074871786818
*CONN
*P ext_trim[12] I
*I input11:A I
*CAP
32 *12:1 8.932229792e-05
33 *12:2 0.00065939557026
34 input11:A 0
*RES
47 *12:1 input11:A 0.8214285714285714
48 *12:2 *12:3 7.437499999999999
49 input11:A input11:A 0
50 *12:1 *12:2 0
*END

*D_NET *13 0.00065939557026
*CONN
*P ext_trim[13] I
*I input12:A I
*CAP
35 *13:1 0.00065939557026
36 input12:A 0
*RES
51 *13:1 *13:2 7.437499999999999
52 input12:A input12:A 0
53 input12:A *13:1 0
*END

*D_NET *14 0.0007752004416600002
*CONN
*P ext_trim[14] I
*I input13:A I
*CAP
37 *14:1 0.0006858781437400002
38 *14:3 8.932229792e-05
39 input13:A 0
*RES
54 *14:1 *14:2 7.741071428571428
55 *14:3 input13:A 0.8214285714285714
56 *14:3 *14:2 0
57 input13:A input13:A 0
*END

*D_NET *15 0.00051586746584
*CONN
*P ext_trim[15] I
*I input14:A I
*CAP
40 *15:1 0.0003596407917
41 *15:3 0.00015622667414000004
42 input14:A 0
*RES
58 *15:1 *15:2 0.6125666666666667
59 *15:3 *15:4 1.669642857142857
60 *15:3 *15:2 0
61 input14:A input14:A 0
62 input14:A *15:4 0
*END

*D_NET *16 0.00050231965908
*CONN
*P ext_trim[16] I
*I input15:A I
*CAP
43 *16:1 0.00010326152718000001
44 *16:3 0.00039905813189999997
45 input15:A 0
*RES
63 *16:1 *16:2 1.0624999999999998
64 *16:3 *16:4 0.6846333333333334
65 input15:A input15:A 0
66 input15:A *16:2 0
67 *16:1 *16:3 0
*END

*D_NET *17 0.00086485180506
*CONN
*P ext_trim[17] I
*I input16:A I
*CAP
46 *17:1 0.00022243310784000002
47 *17:3 0.00059207816826
48 *17:5 5.034052896000001e-05
49 input16:A 0
*RES
68 *17:1 *17:2 2.4285714285714284
69 *17:3 *17:2 1.232142857142857
70 *17:3 *17:4 5.3125
71 *17:5 input16:A 0.4107142857142857
72 *17:5 *17:4 0
73 input16:A input16:A 0
*END

*D_NET *18 0.0008201105408399999
*CONN
*P ext_trim[18] I
*I input17:A I
*CAP
50 *18:1 0.00042105240893999997
51 *18:3 0.00039905813189999997
52 input17:A 0
*RES
74 *18:1 *18:2 4.705357142857142
75 *18:3 *18:4 0.6846333333333334
76 *18:1 *18:3 0
77 input17:A input17:A 0
78 input17:A *18:2 0
*END

*D_NET *19 0.00074871786818
*CONN
*P ext_trim[19] I
*I input18:A I
*CAP
53 *19:1 8.932229792e-05
54 *19:2 0.00065939557026
55 input18:A 0
*RES
79 *19:1 input18:A 0.8214285714285714
80 *19:2 *19:3 7.437499999999999
81 input18:A input18:A 0
82 *19:1 *19:2 0
*END

*D_NET *20 0.0004364197454
*CONN
*P ext_trim[1] I
*I input19:A I
*CAP
56 *20:1 0.0003596407917
57 *20:3 7.67789537e-05
58 *20:4 0
59 input19:A 0
*RES
83 *20:1 *20:2 0.6125666666666667
84 *20:3 *20:4 0.7589285714285713
85 *20:4 *20:2 0
86 input19:A input19:A 0
87 input19:A *20:3 0
*END

*D_NET *21 0.0008668527779400001
*CONN
*P ext_trim[20] I
*I input20:A I
*CAP
60 *21:1 0.00065939557026
61 *21:3 0.00020745720768000002
62 *21:4 0
63 input20:A 0
*RES
88 *21:1 *21:2 7.437499999999999
89 *21:3 input20:A 0.30357142857142855
90 *21:3 *21:4 1.6428571428571428
91 *21:4 *21:2 0
92 input20:A input20:A 0
*END

*D_NET *22 0.00038345459844
*CONN
*P ext_trim[21] I
*I input21:A I
*CAP
64 *22:1 0.0003596407917
65 *22:3 2.3813806740000006e-05
66 *22:4 0
67 input21:A 0
*RES
93 *22:1 *22:2 0.6125666666666667
94 *22:3 *22:4 0.15178571428571427
95 *22:4 *22:2 0
96 input21:A input21:A 0
97 input21:A *22:3 0
*END

*D_NET *23 0.00047583708559999997
*CONN
*P ext_trim[22] I
*I input22:A I
*CAP
68 *23:1 7.67789537e-05
69 *23:3 0.00039905813189999997
70 *23:2 0
71 input22:A 0
*RES
98 *23:1 *23:2 0.7589285714285713
99 *23:3 *23:4 0.6846333333333334
100 *23:2 *23:3 0
101 input22:A input22:A 0
102 input22:A *23:1 0
*END

*D_NET *24 0.00065939557026
*CONN
*P ext_trim[23] I
*I input23:A I
*CAP
72 *24:1 0.00065939557026
73 input23:A 0
*RES
103 *24:1 *24:2 7.437499999999999
104 input23:A input23:A 0
105 input23:A *24:1 0
*END

*D_NET *25 0.00106057201986
*CONN
*P ext_trim[24] I
*I input24:A I
*CAP
74 *25:1 0.00040117644959999997
75 *25:2 0.00065939557026
76 input24:A 0
*RES
106 *25:1 input24:A 4.107142857142857
107 *25:2 *25:3 7.437499999999999
108 input24:A input24:A 0
109 *25:1 *25:2 0
*END

*D_NET *26 0.0010144004553
*CONN
*P ext_trim[25] I
*I input25:A I
*CAP
77 *26:1 0.00032836340175999997
78 *26:2 8.223124824000001e-05
79 *26:3 0.00055346527634
80 *26:5 5.034052896000001e-05
81 input25:A 0
*RES
110 *26:1 *26:2 3.642857142857143
111 *26:2 *26:3 0.8214285714285714
112 *26:3 *26:4 6.223214285714285
113 *26:5 input25:A 0.4107142857142857
114 *26:5 *26:4 0
115 input25:A input25:A 0
*END

*D_NET *27 0.0009605784560200001
*CONN
*P ext_trim[2] I
*I input26:A I
*CAP
82 *27:1 8.932229792e-05
83 *27:2 0.0008712561581000002
84 input26:A 0
*RES
116 *27:1 input26:A 0.8214285714285714
117 *27:2 *27:3 9.866071428571429
118 *27:1 *27:3 0
119 input26:A input26:A 0
*END

*D_NET *28 0.00065939557026
*CONN
*P ext_trim[3] I
*I input27:A I
*CAP
85 *28:1 0.00065939557026
86 input27:A 0
*RES
120 *28:1 *28:2 7.437499999999999
121 input27:A input27:A 0
122 input27:A *28:1 0
*END

*D_NET *29 0.0007752004416600002
*CONN
*P ext_trim[4] I
*I input28:A I
*CAP
87 *29:1 0.0006858781437400002
88 *29:3 8.932229792e-05
89 input28:A 0
*RES
123 *29:1 *29:2 7.741071428571428
124 *29:3 input28:A 0.8214285714285714
125 *29:3 *29:2 0
126 input28:A input28:A 0
*END

*D_NET *30 0.00038345459844
*CONN
*P ext_trim[5] I
*I input29:A I
*CAP
90 *30:1 0.0003596407917
91 *30:3 2.3813806740000006e-05
92 input29:A 0
*RES
127 *30:1 *30:2 0.6125666666666667
128 *30:3 *30:4 0.15178571428571427
129 *30:3 *30:2 0
130 input29:A input29:A 0
131 input29:A *30:4 0
*END

*D_NET *31 0.0006858781437400002
*CONN
*P ext_trim[6] I
*I input30:A I
*CAP
93 *31:1 0.0006858781437400002
94 input30:A 0
*RES
132 *31:1 *31:2 7.741071428571428
133 input30:A input30:A 0
134 input30:A *31:2 0
*END

*D_NET *32 0.00071418024692
*CONN
*P ext_trim[7] I
*I input31:A I
*CAP
95 *32:1 0.00031512211502
96 *32:3 0.00039905813189999997
97 input31:A 0
*RES
135 *32:1 *32:2 3.4910714285714284
136 *32:3 *32:4 0.6846333333333334
137 *32:1 *32:3 0
138 input31:A input31:A 0
139 input31:A *32:2 0
*END

*D_NET *33 0.00042287193864
*CONN
*P ext_trim[8] I
*I input32:A I
*CAP
98 *33:1 2.3813806740000006e-05
99 *33:3 0.00039905813189999997
100 input32:A 0
*RES
140 *33:1 *33:2 0.15178571428571427
141 *33:3 *33:4 0.6846333333333334
142 input32:A input32:A 0
143 input32:A *33:2 0
144 *33:1 *33:3 0
*END

*D_NET *34 0.00084536703424
*CONN
*P ext_trim[9] I
*I input33:A I
*CAP
101 *34:1 0.00028863954154000006
102 *34:3 0.0005567274927
103 *34:2 0
104 input33:A 0
*RES
145 *34:1 *34:2 3.1874999999999996
146 *34:3 *34:4 0.9729000000000001
147 *34:2 *34:3 0
148 input33:A input33:A 0
149 input33:A *34:1 0
*END

*D_NET *35 0.00047583708559999997
*CONN
*P osc I
*I input34:A I
*CAP
105 *35:1 7.67789537e-05
106 *35:3 0.00039905813189999997
107 input34:A 0
*RES
150 *35:1 *35:2 0.7589285714285713
151 *35:3 *35:4 0.6846333333333334
152 input34:A input34:A 0
153 input34:A *35:2 0
154 *35:1 *35:3 0
*END

*D_NET *36 0.00046290231888
*CONN
*P resetb I
*I input35:A I
*CAP
108 *36:1 0.0003596407917
109 *36:3 0.00010326152718000001
110 input35:A 0
*RES
155 *36:1 *36:2 0.6125666666666667
156 *36:3 *36:4 1.0624999999999998
157 *36:3 *36:2 0
158 input35:A input35:A 0
159 input35:A *36:4 0
*END

*D_NET *37 0.0012327449124
*CONN
*I _329_:A1 I
*I _304_:C1 I
*I _293_:C1 I
*I _232_:B I
*I _231_:X O
*CAP
111 *37:1 0.00011650281392
112 *37:3 0.0003621946806399999
113 _304_:C1 6.898398368e-05
114 *37:4 5.034052896000001e-05
115 _232_:B 0.00012830406688
116 *37:6 0.00012949366976
117 _293_:C1 4.017137184e-05
118 *37:7 0.00016728583584
119 *37:9 0.00016946796088000002
120 _231_:X 0
121 _329_:A1 0
122 *37:8 0
*RES
160 *37:1 *37:2 1.2142857142857142
161 *37:3 _329_:A1 3.6964285714285707
162 _304_:C1 *37:4 0.6071428571428571
163 *37:4 _231_:X 0.4107142857142857
164 _232_:B *37:5 1.232142857142857
165 *37:6 *37:5 0.30357142857142855
166 *37:6 *37:3 0.8214285714285714
167 _293_:C1 *37:7 0.30357142857142855
168 *37:7 *37:8 1.6428571428571428
169 *37:9 *37:10 1.8214285714285714
170 _231_:X _231_:X 0
171 _231_:X *37:1 0
172 *37:3 *37:2 0
173 _329_:A1 _329_:A1 0
174 _304_:C1 _304_:C1 0
175 _232_:B _232_:B 0
176 _293_:C1 _293_:C1 0
177 *37:8 *37:9 0
178 _232_:B *37:10 0
*END

*D_NET *38 0.00440885109216
*CONN
*I _352_:A0 I
*I _233_:C I
*I _232_:X O
*CAP
123 *38:1 0.00114183005984
124 *38:2 0.00016946796088000002
125 _232_:X 0.00044134782144
126 _233_:C 5.034052896000001e-05
127 *38:6 0.00260586472104
128 _352_:A0 0
129 *38:4 0
130 *38:5 0
*RES
179 *38:1 _232_:X 11.910714285714285
180 *38:2 *38:3 1.8214285714285714
181 _232_:X *38:4 4.107142857142857
182 _232_:X _232_:X 0.30357142857142855
183 _233_:C *38:5 0.4107142857142857
184 *38:6 *38:7 29.749999999999996
185 _232_:X _232_:X 0
186 *38:1 *38:2 0
187 _352_:A0 _352_:A0 0
188 _352_:A0 *38:3 0
189 *38:4 *38:7 0
190 *38:5 *38:6 0
191 _233_:C _233_:C 0
*END

*D_NET *39 0.0010764148848
*CONN
*I _350_:A0 I
*I _289_:X O
*CAP
131 _350_:A0 0.0004791399875199999
132 *39:1 4.017137184e-05
133 *39:2 0.00055710352544
134 _289_:X 0
*RES
192 _350_:A0 *39:1 4.928571428571428
193 *39:1 *39:2 0.30357142857142855
194 *39:2 _289_:X 5.75
195 _350_:A0 _350_:A0 0
196 _289_:X _289_:X 0
*END

*D_NET *40 0.00478792580404
*CONN
*I _348_:A0 I
*I _289_:B1 I
*I _287_:B1 I
*I _286_:B1 I
*I _285_:B1 I
*I _284_:X O
*CAP
135 *40:1 5.034052896000001e-05
136 *40:2 0.00063959102068
137 _289_:B1 0.00024524937376
138 *40:4 0.0002062676048
139 *40:5 4.017137184e-05
140 *40:7 0.00066506927808
141 _284_:X 0.00063506706336
142 *40:8 0.00056670656308
143 *40:9 8.932229792e-05
144 *40:10 0.00015622667414000004
145 *40:12 0.0014436176471999999
146 *40:14 5.029638022e-05
147 _348_:A0 0
148 _287_:B1 0
149 _286_:B1 0
150 _285_:B1 0
151 *40:11 0
152 *40:16 0
*RES
197 *40:1 _348_:A0 0.4107142857142857
198 *40:2 *40:3 0.4107142857142857
199 _289_:B1 _287_:B1 2.464285714285714
200 *40:4 _284_:X 2.0535714285714284
201 *40:5 *40:4 0.30357142857142855
202 *40:2 *40:6 6.678571428571428
203 *40:7 _286_:B1 0.6071428571428571
204 _284_:X *40:7 6.571428571428571
205 *40:8 *40:2 6.374999999999999
206 *40:9 _285_:B1 0.8214285714285714
207 *40:10 *40:11 1.669642857142857
208 *40:12 *40:13 2.5944
209 *40:14 *40:15 0.45535714285714285
210 *40:7 *40:16 6.160714285714286
211 _348_:A0 _348_:A0 0
212 *40:1 *40:8 0
213 _289_:B1 _289_:B1 0
214 _289_:B1 *40:3 0
215 _287_:B1 _287_:B1 0
216 _284_:X _284_:X 0
217 *40:5 *40:6 0
218 _286_:B1 _286_:B1 0
219 _285_:B1 _285_:B1 0
220 *40:9 *40:10 0
221 *40:11 *40:13 0
222 *40:14 *40:12 0
223 *40:16 *40:15 0
*END

*D_NET *41 0.00675367415722
*CONN
*I _346_:A0 I
*I _288_:B I
*I _284_:B1 I
*I _283_:B1 I
*I _282_:B1 I
*I _281_:B1 I
*I _279_:B I
*I _278_:X O
*CAP
153 _346_:A0 0.00019728805056
154 *41:2 0.00024891568132000004
155 *41:4 0.00012830406688
156 *41:3 6.353766696000002e-05
157 *41:7 0.0009374625918000002
158 *41:9 0.00016728583584
159 _283_:B1 5.034052896000001e-05
160 *41:11 0.00019595053436
161 *41:13 0.0004803295904
162 _288_:B 5.034052896000001e-05
163 *41:15 0.00044015821855999997
164 *41:16 0.0009904277387600001
165 *41:18 0.00024524937376
166 *41:19 2.3813806740000006e-05
167 *41:21 0.00033993212159999996
168 *41:23 0.00219433782176
169 _278_:X 0
170 *41:1 0
171 _281_:B1 0
172 *41:5 0
173 *41:10 0
174 _279_:B 0
175 *41:14 0
176 _284_:B1 0
177 _282_:B1 0
178 *41:20 0
179 *41:25 0
*RES
224 _346_:A0 *41:1 1.232142857142857
225 _346_:A0 _346_:A0 0.6071428571428571
226 *41:2 *41:3 2.7321428571428568
227 *41:4 *41:5 1.232142857142857
228 *41:3 *41:6 0.6071428571428571
229 *41:7 *41:8 10.625
230 *41:9 _278_:X 1.6428571428571428
231 _283_:B1 *41:10 0.4107142857142857
232 *41:11 *41:12 2.1249999999999996
233 *41:13 _279_:B 0.30357142857142855
234 *41:13 *41:14 4.517857142857142
235 _288_:B _279_:B 0.4107142857142857
236 *41:15 _284_:B1 4.517857142857142
237 *41:16 *41:17 11.232142857142856
238 *41:18 *41:13 2.464285714285714
239 *41:19 *41:20 0.15178571428571427
240 *41:21 *41:22 0.5765333333333333
241 *41:23 _346_:A0 23.0
242 _278_:X _278_:X 0
243 _346_:A0 _346_:A0 0
244 *41:1 *41:8 0
245 *41:9 *41:3 0
246 _281_:B1 _281_:B1 0
247 _281_:B1 *41:2 0
248 *41:5 *41:7 0
249 *41:4 *41:6 0
250 _283_:B1 _283_:B1 0
251 *41:10 *41:11 0
252 *41:23 *41:12 0
253 _279_:B _279_:B 0
254 *41:14 *41:24 0
255 _288_:B _288_:B 0
256 _284_:B1 _284_:B1 0
257 *41:15 *41:16 0
258 *41:18 *41:17 0
259 _282_:B1 _282_:B1 0
260 _282_:B1 *41:19 0
261 *41:20 *41:21 0
262 *41:25 *41:22 0
*END

*D_NET *42 0.0003632363702
*CONN
*I _344_:A0 I
*I _286_:X O
*CAP
180 *42:1 0.00019595053436
181 _344_:A0 0.00016728583584
182 _286_:X 0
183 *42:3 0
*RES
263 *42:1 *42:2 2.1249999999999996
264 _344_:A0 *42:3 1.6428571428571428
265 _286_:X _286_:X 0
266 _286_:X *42:1 0
267 *42:3 *42:2 0
268 _344_:A0 _344_:A0 0
*END

*D_NET *43 0.0009836943202400001
*CONN
*I _342_:A0 I
*I _283_:X O
*CAP
184 *43:1 0.00012830406688
185 *43:2 0.0008050497244000001
186 *43:4 5.034052896000001e-05
187 _283_:X 0
188 _342_:A0 0
*RES
269 *43:1 _283_:X 1.232142857142857
270 *43:2 *43:3 9.107142857142856
271 *43:4 _342_:A0 0.4107142857142857
272 _283_:X _283_:X 0
273 *43:1 *43:2 0
274 *43:4 *43:3 0
275 _342_:A0 _342_:A0 0
*END

*D_NET *44 0.00024524937376
*CONN
*I _340_:A0 I
*I _279_:X O
*CAP
189 _279_:X 0.00024524937376
190 _340_:A0 0
*RES
276 _279_:X _340_:A0 2.464285714285714
277 _340_:A0 _340_:A0 0
278 _279_:X _279_:X 0
*END

*D_NET *45 0.00021832430732
*CONN
*I _338_:A0 I
*I _290_:X O
*CAP
191 _290_:X 0.00012830406688
192 *45:2 9.002024044000002e-05
193 _338_:A0 0
194 *45:1 0
*RES
279 _290_:X *45:1 1.232142857142857
280 *45:2 *45:3 0.9107142857142857
281 _338_:A0 _338_:A0 0
282 _338_:A0 *45:3 0
283 _290_:X _290_:X 0
284 *45:1 *45:2 0
*END

*D_NET *46 0.00068146894748
*CONN
*I _336_:A0 I
*I _281_:X O
*CAP
195 *46:1 4.640188412000001e-05
196 _281_:X 0.00063506706336
197 _336_:A0 0
198 *46:3 0
*RES
285 *46:1 *46:2 0.4107142857142857
286 _281_:X *46:3 6.571428571428571
287 _336_:A0 _336_:A0 0
288 _336_:A0 *46:2 0
289 *46:3 *46:1 0
290 _281_:X _281_:X 0
*END

*D_NET *47 0.00215155217136
*CONN
*I _334_:A0 I
*I _285_:X O
*CAP
199 _285_:X 0.00012830406688
200 *47:2 0.0020232481044800002
201 _334_:A0 0
202 *47:1 0
*RES
291 _285_:X *47:1 1.232142857142857
292 *47:2 *47:3 23.07142857142857
293 _334_:A0 _334_:A0 0
294 _334_:A0 *47:3 0
295 _285_:X _285_:X 0
296 *47:1 *47:2 0
*END

*D_NET *48 0.0004791399875199999
*CONN
*I _332_:A0 I
*I _288_:X O
*CAP
203 _332_:A0 0.0004791399875199999
204 _288_:X 0
*RES
297 _332_:A0 _288_:X 4.928571428571428
298 _332_:A0 _332_:A0 0
299 _288_:X _288_:X 0
*END

*D_NET *49 0.0016743877246000003
*CONN
*I _330_:A0 I
*I _287_:X O
*CAP
205 *49:1 9.002024044000002e-05
206 *49:3 0.0004803295904
207 *49:6 0.0011040378937600002
208 _287_:X 0
209 *49:4 0
210 _330_:A0 0
*RES
300 *49:1 *49:2 0.9107142857142857
301 *49:3 *49:4 4.517857142857142
302 *49:3 *49:5 0.30357142857142855
303 *49:6 *49:5 11.089285714285714
304 *49:6 _330_:A0 0.30357142857142855
305 _287_:X _287_:X 0
306 _287_:X *49:1 0
307 *49:4 *49:2 0
308 _330_:A0 _330_:A0 0
*END

*D_NET *50 0.00063506706336
*CONN
*I _354_:A0 I
*I _282_:X O
*CAP
211 _354_:A0 0.00063506706336
212 _282_:X 0
*RES
309 _354_:A0 _282_:X 6.571428571428571
310 _282_:X _282_:X 0
311 _354_:A0 _354_:A0 0
*END

*D_NET *51 0.0004926808725600001
*CONN
*I _353_:A0 I
*I _291_:X O
*CAP
213 *51:1 0.00016946796088000002
214 _353_:A0 0.00032321291168
215 _291_:X 0
216 *51:3 0
*RES
312 *51:1 *51:2 1.8214285714285714
313 _353_:A0 *51:3 3.2857142857142856
314 _291_:X _291_:X 0
315 _291_:X *51:1 0
316 *51:3 *51:2 0
317 _353_:A0 _353_:A0 0
*END

*D_NET *52 0.0026013004250800002
*CONN
*I _329_:A0 I
*I _292_:B I
*I _224_:C I
*I _223_:X O
*CAP
217 *52:1 0.00012830406688
218 _223_:X 8.932229792e-05
219 *52:3 0.00048725884264
220 *52:4 0.00014298538739999998
221 *52:6 0.00016728583584
222 *52:8 0.0001583062816
223 _224_:C 4.017137184e-05
224 *52:10 0.00138766634096
225 _329_:A0 0
226 *52:2 0
227 _292_:B 0
*RES
318 *52:1 _329_:A0 1.232142857142857
319 _223_:X *52:2 0.8214285714285714
320 *52:3 *52:4 5.4642857142857135
321 *52:4 *52:5 1.5178571428571426
322 *52:6 *52:7 1.6428571428571428
323 *52:8 *52:7 0.6071428571428571
324 *52:8 *52:9 0.8214285714285714
325 _224_:C *52:9 0.30357142857142855
326 *52:10 *52:11 15.785714285714285
327 *52:1 *52:5 0
328 _329_:A0 _329_:A0 0
329 _223_:X _223_:X 0
330 *52:2 *52:11 0
331 _292_:B _292_:B 0
332 _292_:B *52:4 0
333 _223_:X *52:3 0
334 *52:6 *52:10 0
335 _224_:C _224_:C 0
*END

*D_NET *53 0.00033675379672000005
*CONN
*I _351_:A0 I
*I _298_:X O
*CAP
228 *53:1 0.00016728583584
229 *53:2 0.00016946796088000002
230 _298_:X 0
231 _351_:A0 0
*RES
336 *53:1 _298_:X 1.6428571428571428
337 *53:2 *53:3 1.8214285714285714
338 _298_:X _298_:X 0
339 *53:1 *53:2 0
340 _351_:A0 _351_:A0 0
341 _351_:A0 *53:3 0
*END

*D_NET *54 0.00398296792932
*CONN
*I _349_:A0 I
*I _296_:B1 I
*I _295_:X O
*CAP
232 *54:1 0.00063506706336
233 *54:3 4.017137184e-05
234 *54:4 0.00071303060128
235 *54:5 9.779659552000001e-05
236 *54:6 0.00128877758144
237 *54:7 4.640188412000001e-05
238 *54:8 0.00038132854871999994
239 *54:10 4.640188412000001e-05
240 _295_:X 0.00016728583584
241 *54:12 0.00056670656308
242 *54:2 0
243 _349_:A0 0
244 _296_:B1 0
245 *54:11 0
*RES
342 *54:1 *54:2 6.571428571428571
343 *54:3 *54:1 0.30357142857142855
344 *54:4 *54:3 7.3928571428571415
345 *54:5 *54:4 0.9107142857142857
346 *54:6 *54:5 12.732142857142856
347 *54:6 _349_:A0 0.6071428571428571
348 *54:7 *54:8 0.4107142857142857
349 *54:8 *54:9 4.249999999999999
350 *54:10 *54:9 0.4107142857142857
351 _295_:X *54:11 1.6428571428571428
352 *54:12 *54:7 6.374999999999999
353 *54:2 *54:12 0
354 _349_:A0 _349_:A0 0
355 _296_:B1 _296_:B1 0
356 _296_:B1 *54:7 0
357 *54:11 *54:10 0
358 _295_:X _295_:X 0
*END

*D_NET *55 0.0004051865042
*CONN
*I _329_:X O
*I _299_:A I
*CAP
246 _329_:X 5.034052896000001e-05
247 *55:2 0.00035484597524
248 *55:1 0
249 _299_:A 0
*RES
359 _329_:X *55:1 0.4107142857142857
360 *55:2 *55:3 3.946428571428571
361 _329_:X _329_:X 0
362 *55:1 *55:2 0
363 _299_:A _299_:A 0
364 _299_:A *55:3 0
*END

*D_NET *56 0.00014036076940000003
*CONN
*I _347_:A0 I
*I _299_:X O
*CAP
250 *56:1 5.034052896000001e-05
251 *56:2 9.002024044000002e-05
252 _347_:A0 0
253 _299_:X 0
*RES
365 *56:1 _347_:A0 0.4107142857142857
366 *56:2 *56:3 0.9107142857142857
367 _347_:A0 _347_:A0 0
368 *56:1 *56:2 0
369 _299_:X _299_:X 0
370 _299_:X *56:3 0
*END

*D_NET *57 0.00041471733464000006
*CONN
*I _345_:A0 I
*I _300_:X O
*CAP
254 _345_:A0 0.00024524937376
255 *57:2 0.00016946796088000002
256 *57:1 0
257 _300_:X 0
*RES
371 _345_:A0 *57:1 2.464285714285714
372 *57:2 *57:3 1.8214285714285714
373 _345_:A0 _345_:A0 0
374 *57:1 *57:2 0
375 _300_:X _300_:X 0
376 _300_:X *57:3 0
*END

*D_NET *58 0.00032321291168
*CONN
*I _343_:A0 I
*I _301_:Y O
*CAP
258 _301_:Y 0.00032321291168
259 _343_:A0 0
*RES
377 _301_:Y _343_:A0 3.2857142857142856
378 _343_:A0 _343_:A0 0
379 _301_:Y _301_:Y 0
*END

*D_NET *59 0.0019417741652000002
*CONN
*I _341_:A0 I
*I _299_:B I
*I _292_:Y O
*CAP
260 _299_:B 8.932229792e-05
261 *59:2 0.0012287709000800002
262 *59:4 4.640188412000001e-05
263 *59:5 2.3813806740000006e-05
264 *59:6 0.00055346527634
265 *59:1 0
266 _341_:A0 0
267 _292_:Y 0
*RES
380 _299_:B *59:1 0.8214285714285714
381 *59:2 *59:3 13.964285714285714
382 *59:4 *59:5 0.4107142857142857
383 *59:5 *59:2 0.15178571428571427
384 *59:6 *59:4 6.223214285714285
385 _299_:B _299_:B 0
386 *59:1 *59:2 0
387 _341_:A0 _341_:A0 0
388 _341_:A0 *59:3 0
389 _292_:Y _292_:Y 0
390 _292_:Y *59:6 0
*END

*D_NET *60 0.0040329018731999995
*CONN
*I _339_:A0 I
*I _303_:X O
*CAP
268 *60:1 2.3813806740000006e-05
269 *60:3 0.0019363343997
270 *60:5 8.286251159999999e-05
271 *60:6 0.0010691529153
272 *60:7 0.00012974410066
273 _303_:X 0.0007909941392
274 _339_:A0 0
275 *60:9 0
*RES
391 *60:1 *60:2 0.15178571428571427
392 *60:3 *60:4 3.4952333333333336
393 *60:5 *60:3 0.10653333333333334
394 *60:6 *60:5 1.9097666666666666
395 *60:7 *60:8 1.3660714285714284
396 _303_:X *60:9 8.214285714285714
397 _303_:X _303_:X 0
398 _339_:A0 _339_:A0 0
399 _339_:A0 *60:2 0
400 *60:1 *60:4 0
401 *60:7 *60:6 0
402 *60:9 *60:8 0
*END

*D_NET *61 0.00092821333852
*CONN
*I _337_:A0 I
*I _295_:C1 I
*I _293_:X O
*CAP
276 *61:1 0.00038132854871999994
277 _337_:A0 5.034052896000001e-05
278 _295_:C1 5.034052896000001e-05
279 *61:4 6.898398368e-05
280 *61:5 0.00012830406688
281 *61:7 0.00024891568132000004
282 _293_:X 0
283 *61:3 0
284 *61:6 0
*RES
403 *61:1 *61:2 4.249999999999999
404 _337_:A0 *61:3 0.4107142857142857
405 _295_:C1 *61:4 0.4107142857142857
406 *61:4 *61:5 0.6071428571428571
407 *61:5 *61:6 1.232142857142857
408 *61:7 *61:1 2.7321428571428568
409 _293_:X _293_:X 0
410 _293_:X *61:1 0