*SPEF "IEEE 1481-1998"
*DESIGN "digital_pll"
*DATE "Tue Apr 27 09:40:13 2021"
*VENDOR "AUC CSCE Department"
*PROGRAM "SPEF Extractor"
*VERSION "1.0"
*DESIGN_FLOW "PIN_CAP NONE"
*DIVIDER /
*DELIMITER :
*BUS_DELIMITER []
*T_UNIT 1.00000 NS
*C_UNIT 1.00000 PF
*R_UNIT 1.00000 OHM
*L_UNIT 1.00000 HENRY


*NAME_MAP
*0 clockc
*1 clockd[0]
*2 clockd[1]
*3 clockd[2]
*4 clockd[3]
*5 clockp[0]
*6 clockp[1]
*7 dco
*8 div[0]
*9 div[1]
*10 div[2]
*11 div[3]
*12 div[4]
*13 ext_trim[0]
*14 ext_trim[10]
*15 ext_trim[11]
*16 ext_trim[12]
*17 ext_trim[13]
*18 ext_trim[14]
*19 ext_trim[15]
*20 ext_trim[16]
*21 ext_trim[17]
*22 ext_trim[18]
*23 ext_trim[19]
*24 ext_trim[1]
*25 ext_trim[20]
*26 ext_trim[21]
*27 ext_trim[22]
*28 ext_trim[23]
*29 ext_trim[24]
*30 ext_trim[25]
*31 ext_trim[2]
*32 ext_trim[3]
*33 ext_trim[4]
*34 ext_trim[5]
*35 ext_trim[6]
*36 ext_trim[7]
*37 ext_trim[8]
*38 ext_trim[9]
*39 extclk_sel
*40 osc
*41 reset
*42 sel[0]
*43 sel[1]
*44 sel[2]
*45 _000_
*46 _001_
*47 _002_
*48 _003_
*49 _004_
*50 _005_
*51 _006_
*52 _007_
*53 _008_
*54 _009_
*55 _010_
*56 _011_
*57 _012_
*58 _013_
*59 _014_
*60 _015_
*61 _016_
*62 _017_
*63 _018_
*64 _019_
*65 _020_
*66 _021_
*67 _022_
*68 _023_
*69 _024_
*70 _025_
*71 _026_
*72 _027_
*73 _028_
*74 _029_
*75 _030_
*76 _031_
*77 _032_
*78 _033_
*79 _034_
*80 _035_
*81 _036_
*82 _037_
*83 _038_
*84 _039_
*85 _040_
*86 _041_
*87 _042_
*88 _043_
*89 _044_
*90 _045_
*91 _046_
*92 _047_
*93 _048_
*94 _049_
*95 _050_
*96 _051_
*97 _052_
*98 _053_
*99 _054_
*100 _055_
*101 _056_
*102 _057_
*103 _058_
*104 _059_
*105 _060_
*106 _061_
*107 _062_
*108 _063_
*109 _064_
*110 _065_
*111 _066_
*112 _067_
*113 _068_
*114 _069_
*115 _070_
*116 _071_
*117 _072_
*118 _073_
*119 _074_
*120 _075_
*121 _076_
*122 _077_
*123 _078_
*124 _079_
*125 _080_
*126 _081_
*127 _082_
*128 _083_
*129 _084_
*130 _085_
*131 _086_
*132 _087_
*133 _088_
*134 _089_
*135 _090_
*136 _091_
*137 _092_
*138 _093_
*139 _094_
*140 _095_
*141 _096_
*142 _097_
*143 _098_
*144 _099_
*145 _100_
*146 _101_
*147 _102_
*148 _103_
*149 _104_
*150 _105_
*151 _106_
*152 _107_
*153 _108_
*154 _109_
*155 _110_
*156 _111_
*157 _112_
*158 _113_
*159 _114_
*160 _115_
*161 _116_
*162 _117_
*163 _118_
*164 _119_
*165 _120_
*166 _121_
*167 _122_
*168 _123_
*169 _124_
*170 _125_
*171 _126_
*172 _127_
*173 _128_
*174 _129_
*175 _130_
*176 _131_
*177 _132_
*178 _133_
*179 _134_
*180 _135_
*181 _136_
*182 _137_
*183 _138_
*184 _139_
*185 _140_
*186 _141_
*187 _142_
*188 _143_
*189 _144_
*190 _145_
*191 _146_
*192 _147_
*193 _148_
*194 _149_
*195 _150_
*196 _151_
*197 _152_
*198 _153_
*199 _154_
*200 _155_
*201 _156_
*202 _157_
*203 _158_
*204 _159_
*205 _160_
*206 _161_
*207 _162_
*208 _163_
*209 _164_
*210 _165_
*211 _166_
*212 _167_
*213 _168_
*214 _169_
*215 _170_
*216 _171_
*217 _172_
*218 _173_
*219 _174_
*220 _175_
*221 nint\[0\]
*222 nint\[1\]
*223 nint\[2\]
*224 nint\[3\]
*225 pll_control.clock
*226 pll_control.count0\[0\]
*227 pll_control.count0\[1\]
*228 pll_control.count0\[2\]
*229 pll_control.count0\[3\]
*230 pll_control.count0\[4\]
*231 pll_control.count1\[0\]
*232 pll_control.count1\[1\]
*233 pll_control.count1\[2\]
*234 pll_control.count1\[3\]
*235 pll_control.count1\[4\]
*236 pll_control.oscbuf\[0\]
*237 pll_control.oscbuf\[1\]
*238 pll_control.oscbuf\[2\]
*239 pll_control.prep\[0\]
*240 pll_control.prep\[1\]
*241 pll_control.prep\[2\]
*242 pll_control.tint\[0\]
*243 pll_control.tint\[1\]
*244 pll_control.tint\[2\]
*245 pll_control.tint\[3\]
*246 pll_control.tint\[4\]
*247 pll_control.tval\[0\]
*248 pll_control.tval\[1\]
*249 resetb
*250 ringosc.c\[0\]
*251 ringosc.c\[1\]
*252 ringosc.dstage\[0\].id.d0
*253 ringosc.dstage\[0\].id.d1
*254 ringosc.dstage\[0\].id.d2
*255 ringosc.dstage\[0\].id.in
*256 ringosc.dstage\[0\].id.out
*257 ringosc.dstage\[0\].id.trim\[0\]
*258 ringosc.dstage\[0\].id.trim\[1\]
*259 ringosc.dstage\[0\].id.ts
*260 ringosc.dstage\[10\].id.d0
*261 ringosc.dstage\[10\].id.d1
*262 ringosc.dstage\[10\].id.d2
*263 ringosc.dstage\[10\].id.in
*264 ringosc.dstage\[10\].id.out
*265 ringosc.dstage\[10\].id.trim\[0\]
*266 ringosc.dstage\[10\].id.trim\[1\]
*267 ringosc.dstage\[10\].id.ts
*268 ringosc.dstage\[11\].id.d0
*269 ringosc.dstage\[11\].id.d1
*270 ringosc.dstage\[11\].id.d2
*271 ringosc.dstage\[11\].id.out
*272 ringosc.dstage\[11\].id.trim\[0\]
*273 ringosc.dstage\[11\].id.trim\[1\]
*274 ringosc.dstage\[11\].id.ts
*275 ringosc.dstage\[1\].id.d0
*276 ringosc.dstage\[1\].id.d1
*277 ringosc.dstage\[1\].id.d2
*278 ringosc.dstage\[1\].id.out
*279 ringosc.dstage\[1\].id.trim\[0\]
*280 ringosc.dstage\[1\].id.trim\[1\]
*281 ringosc.dstage\[1\].id.ts
*282 ringosc.dstage\[2\].id.d0
*283 ringosc.dstage\[2\].id.d1
*284 ringosc.dstage\[2\].id.d2
*285 ringosc.dstage\[2\].id.out
*286 ringosc.dstage\[2\].id.trim\[0\]
*287 ringosc.dstage\[2\].id.trim\[1\]
*288 ringosc.dstage\[2\].id.ts
*289 ringosc.dstage\[3\].id.d0
*290 ringosc.dstage\[3\].id.d1
*291 ringosc.dstage\[3\].id.d2
*292 ringosc.dstage\[3\].id.out
*293 ringosc.dstage\[3\].id.trim\[0\]
*294 ringosc.dstage\[3\].id.trim\[1\]
*295 ringosc.dstage\[3\].id.ts
*296 ringosc.dstage\[4\].id.d0
*297 ringosc.dstage\[4\].id.d1
*298 ringosc.dstage\[4\].id.d2
*299 ringosc.dstage\[4\].id.out
*300 ringosc.dstage\[4\].id.trim\[0\]
*301 ringosc.dstage\[4\].id.trim\[1\]
*302 ringosc.dstage\[4\].id.ts
*303 ringosc.dstage\[5\].id.d0
*304 ringosc.dstage\[5\].id.d1
*305 ringosc.dstage\[5\].id.d2
*306 ringosc.dstage\[5\].id.out
*307 ringosc.dstage\[5\].id.trim\[0\]
*308 ringosc.dstage\[5\].id.trim\[1\]
*309 ringosc.dstage\[5\].id.ts
*310 ringosc.dstage\[6\].id.d0
*311 ringosc.dstage\[6\].id.d1
*312 ringosc.dstage\[6\].id.d2
*313 ringosc.dstage\[6\].id.out
*314 ringosc.dstage\[6\].id.trim\[0\]
*315 ringosc.dstage\[6\].id.trim\[1\]
*316 ringosc.dstage\[6\].id.ts
*317 ringosc.dstage\[7\].id.d0
*318 ringosc.dstage\[7\].id.d1
*319 ringosc.dstage\[7\].id.d2
*320 ringosc.dstage\[7\].id.out
*321 ringosc.dstage\[7\].id.trim\[0\]
*322 ringosc.dstage\[7\].id.trim\[1\]
*323 ringosc.dstage\[7\].id.ts
*324 ringosc.dstage\[8\].id.d0
*325 ringosc.dstage\[8\].id.d1
*326 ringosc.dstage\[8\].id.d2
*327 ringosc.dstage\[8\].id.out
*328 ringosc.dstage\[8\].id.trim\[0\]
*329 ringosc.dstage\[8\].id.trim\[1\]
*330 ringosc.dstage\[8\].id.ts
*331 ringosc.dstage\[9\].id.d0
*332 ringosc.dstage\[9\].id.d1
*333 ringosc.dstage\[9\].id.d2
*334 ringosc.dstage\[9\].id.trim\[0\]
*335 ringosc.dstage\[9\].id.trim\[1\]
*336 ringosc.dstage\[9\].id.ts
*337 ringosc.iss.ctrl0
*338 ringosc.iss.d0
*339 ringosc.iss.d1
*340 ringosc.iss.d2
*341 ringosc.iss.one
*342 ringosc.iss.reset
*343 ringosc.iss.trim\[0\]
*344 ringosc.iss.trim\[1\]
*345 net1
*346 net2
*347 net3
*348 net4
*349 net5
*350 net6
*351 net7
*352 net8
*353 net9
*354 net10
*355 net11
*356 net12
*357 net13
*358 net14
*359 net15
*360 net16
*361 net17
*362 net18
*363 net19
*364 net20
*365 net21
*366 net22
*367 net23
*368 net24
*369 net25
*370 net26
*371 net27
*372 net28
*373 net29
*374 net30
*375 net31
*376 net32
*377 net33
*378 net34
*379 net35
*380 net36
*381 net37
*382 net38
*383 net39
*384 net40
*385 net41
*386 net42
*387 net43
*388 net44
*389 net45
*390 net46

*D_NET *0 0.00040993717191999997
*CONN
*P clockc O
*I output39:X O
*CAP
0 *0:1 0.0003596407917
1 *0:3 5.029638022e-05
2 output39:X 0
*RES
0 *0:1 *0:2 0.6125666666666667
1 *0:3 *0:4 0.45535714285714285
2 *0:3 *0:2 0
3 output39:X output39:X 0
4 output39:X *0:4 0
*END

*D_NET *1 0.00042287193864
*CONN
*P clockd[0] O
*I output40:X O
*CAP
3 *1:1 2.3813806740000006e-05
4 *1:3 0.00039905813189999997
5 output40:X 0
6 *1:2 0
*RES
5 *1:1 *1:2 0.15178571428571427
6 *1:3 *1:4 0.6846333333333334
7 output40:X output40:X 0
8 output40:X *1:1 0
9 *1:2 *1:4 0
*END

*D_NET *2 0.00038345459844
*CONN
*P clockd[1] O
*I output41:X O
*CAP
7 *2:1 0.0003596407917
8 *2:3 2.3813806740000006e-05
9 *2:4 0
10 output41:X 0
*RES
10 *2:1 *2:2 0.6125666666666667
11 *2:3 *2:4 0.15178571428571427
12 *2:4 *2:2 0
13 output41:X output41:X 0
14 output41:X *2:3 0
*END

*D_NET *3 0.00105477546192
*CONN
*P clockd[2] O
*I output42:X O
*CAP
11 *3:1 0.00018270924762000003
12 *3:3 0.0008720662143000001
13 output42:X 0
*RES
15 *3:1 *3:2 1.9732142857142856
16 *3:3 *3:4 1.5494333333333334
17 output42:X output42:X 0
18 output42:X *3:2 0
19 *3:1 *3:3 0
*END

*D_NET *4 0.00063291299678
*CONN
*P clockd[3] O
*I output43:X O
*CAP
14 *4:1 0.00063291299678
15 output43:X 0
*RES
20 *4:1 *4:2 7.133928571428571
21 output43:X output43:X 0
22 output43:X *4:2 0
*END

*D_NET *5 0.00063473252648
*CONN
*P clockp[0] O
*I output44:X O
*CAP
16 *5:1 0.00023567439458000006
17 *5:3 0.00039905813189999997
18 output44:X 0
19 *5:2 0
*RES
23 *5:1 *5:2 2.580357142857143
24 *5:3 *5:4 0.6846333333333334
25 output44:X output44:X 0
26 output44:X *5:1 0
27 *5:2 *5:4 0
*END

*D_NET *6 0.00063291299678
*CONN
*P clockp[1] O
*I output45:X O
*CAP
20 *6:1 0.00063291299678
21 output45:X 0
*RES
28 *6:1 *6:2 7.133928571428571
29 output45:X output45:X 0
30 output45:X *6:2 0
*END

*D_NET *7 0.0007362186727000002
*CONN
*P dco I
*I input1:A I
*CAP
22 *7:1 0.0006858781437400002
23 *7:3 5.034052896000001e-05
24 input1:A 0
*RES
31 *7:1 *7:2 7.741071428571428
32 *7:3 input1:A 0.4107142857142857
33 *7:3 *7:2 0
34 input1:A input1:A 0
*END

*D_NET *8 0.00080594969404
*CONN
*P div[0] I
*I input2:A I
*CAP
25 *8:1 0.0005173101524999999
26 *8:3 0.00028863954154000006
27 *8:4 0
28 input2:A 0
*RES
35 *8:1 *8:2 0.9008333333333334
36 *8:3 *8:4 3.1874999999999996
37 *8:4 *8:1 0
38 input2:A input2:A 0
39 input2:A *8:3 0
*END

*D_NET *9 0.00456292003706
*CONN
*P div[1] I
*I input3:A I
*CAP
29 *9:1 0.00081829101114
30 input3:A 6.898398368e-05
31 *9:3 0.00367564504224
32 *9:4 0
*RES
40 *9:1 *9:2 9.25892857142857
41 input3:A *9:3 0.6071428571428571
42 *9:3 *9:4 38.607142857142854
43 *9:4 *9:1 0
44 input3:A input3:A 0
*END

*D_NET *10 0.0021047385542200003
*CONN
*P div[2] I
*I input4:A I
*CAP
33 input4:A 4.017137184e-05
34 *10:1 0.00121979359776
35 *10:3 0.0008447735846200001
36 *10:2 0
*RES
45 input4:A *10:1 0.30357142857142855
46 *10:1 *10:2 12.732142857142856
47 *10:3 *10:4 9.5625
48 input4:A input4:A 0
49 *10:2 *10:3 0
*END

*D_NET *11 0.0017634334640200004
*CONN
*P div[3] I
*I input5:A I
*CAP
37 *11:1 0.00065939557026
38 *11:3 0.0010638665219200002
39 *11:4 4.017137184e-05
40 input5:A 0
*RES
50 *11:1 *11:2 7.437499999999999
51 *11:3 *11:4 11.089285714285714
52 *11:4 input5:A 0.30357142857142855
53 *11:3 *11:2 0
54 input5:A input5:A 0
*END

*D_NET *12 0.00624583132514
*CONN
*P div[4] I
*I input6:A I
*CAP
41 input6:A 0.00026474025824
42 *12:1 4.017137184e-05
43 *12:2 0.0001088131824
44 *12:3 6.898398368e-05
45 *12:4 0.00227230135968
46 *12:6 0.0002753982548
47 *12:8 0.00086895767712
48 *12:9 4.017137184e-05
49 *12:10 0.00055710352544
50 *12:12 0.00036808726198
51 *12:14 0.0013811030781200003
52 *12:5 0
53 *12:11 0
*RES
55 input6:A *12:1 2.669642857142857
56 *12:1 *12:2 0.30357142857142855
57 *12:2 *12:3 1.0267857142857142
58 *12:3 *12:4 0.6071428571428571
59 *12:4 *12:5 23.82142857142857
60 *12:6 *12:7 3.035714285714285
61 *12:8 *12:9 9.035714285714285
62 *12:9 *12:10 0.30357142857142855
63 *12:10 *12:11 5.75
64 *12:12 *12:13 4.098214285714286
65 *12:14 *12:13 0.4107142857142857
66 *12:14 *12:15 15.178571428571427
67 input6:A input6:A 0
68 *12:5 *12:7 0
69 *12:8 *12:6 0
70 *12:11 *12:12 0
*END

*D_NET *13 0.0040045902237
*CONN
*P ext_trim[0] I
*I input7:A I
*CAP
54 *13:1 0.00016728583584
55 *13:2 0.0038373043878600003
56 input7:A 0
*RES
71 *13:1 input7:A 1.6428571428571428
72 *13:2 *13:3 43.86607142857142
73 *13:1 *13:2 0
74 input7:A input7:A 0
*END

*D_NET *14 0.00117870692962
*CONN
*P ext_trim[10] I
*I input8:A I
*CAP
57 *14:1 0.0005193113593599999
58 *14:2 0.00065939557026
59 input8:A 0
60 *14:4 0
*RES
75 *14:1 input8:A 0.30357142857142855
76 *14:2 *14:3 7.437499999999999
77 *14:1 *14:4 4.928571428571428
78 input8:A input8:A 0
79 *14:4 *14:3 0
*END

*D_NET *15 0.0017006063309400001
*CONN
*P ext_trim[11] I
*I input9:A I
*CAP
61 input9:A 0.00016728583584
62 *15:2 0.0015333204951000002
63 *15:1 0
*RES
80 input9:A *15:1 1.6428571428571428
81 *15:2 *15:3 17.455357142857142
82 input9:A input9:A 0
83 *15:1 *15:2 0
*END

*D_NET *16 0.0024091106108
*CONN
*P ext_trim[12] I
*I input10:A I
*CAP
64 *16:1 0.00032321291168
65 input10:A 4.017137184e-05
66 *16:3 0.0011479875956999998
67 *16:5 0.0008977387315800001
68 *16:6 0
*RES
84 *16:1 *16:2 3.2857142857142856
85 input10:A *16:2 0.30357142857142855
86 *16:3 *16:4 2.0539
87 *16:5 *16:6 10.169642857142856
88 *16:1 *16:5 0
89 input10:A input10:A 0
90 *16:6 *16:3 0
*END

*D_NET *17 0.00164140987426
*CONN
*P ext_trim[13] I
*I input11:A I
*CAP
69 *17:1 0.0005582931283199999
70 *17:3 0.0010831167459400002
71 input11:A 0
72 *17:2 0
*RES
91 *17:1 input11:A 0.30357142857142855
92 *17:1 *17:2 5.339285714285714
93 *17:3 *17:4 12.294642857142856
94 input11:A input11:A 0
95 *17:2 *17:4 0
*END

*D_NET *18 0.00258703045126
*CONN
*P ext_trim[14] I
*I input12:A I
*CAP
73 *18:1 0.0002062676048
74 *18:2 0.00238076284646
75 input12:A 0
*RES
96 *18:1 input12:A 2.0535714285714284
97 *18:2 *18:3 27.169642857142854
98 *18:1 *18:3 0
99 input12:A input12:A 0
*END

*D_NET *19 0.00330449250496
*CONN
*P ext_trim[15] I
*I input13:A I
*CAP
76 *19:1 0.0003202234515
77 input13:A 0.0002062676048
78 *19:4 0.00277800144866
79 *19:5 0
80 *19:3 0
*RES
100 *19:1 *19:2 0.5405000000000001
101 input13:A *19:3 2.0535714285714284
102 *19:4 *19:5 31.723214285714285
103 *19:5 *19:1 0
104 *19:3 *19:4 0
105 input13:A input13:A 0
*END

*D_NET *20 0.0029951970159400004
*CONN
*P ext_trim[16] I
*I input14:A I
*CAP
81 input14:A 9.779659552000001e-05
82 *20:2 0.0023013151260200004
83 *20:1 0.0005960852944
84 *20:4 0
*RES
106 input14:A *20:1 0.9107142857142857
107 *20:2 *20:3 26.25892857142857
108 *20:1 *20:4 6.160714285714286
109 input14:A input14:A 0
110 *20:4 *20:2 0
*END

*D_NET *21 0.002507030734
*CONN
*P ext_trim[17] I
*I input15:A I
*CAP
85 *21:1 0.0009903182348999999
86 input15:A 8.932229792e-05
87 *21:4 0.0014273902011800001
88 *21:3 0
*RES
111 *21:1 *21:2 1.7656333333333334
112 input15:A *21:3 0.8214285714285714
113 *21:4 *21:5 16.241071428571427
114 *21:4 *21:2 0
115 input15:A input15:A 0
116 *21:3 *21:5 0
*END

*D_NET *22 0.00406524447162
*CONN
*P ext_trim[18] I
*I input16:A I
*CAP
89 input16:A 6.898398368e-05
90 *22:2 0.00011650281392
91 *22:3 4.640188412000001e-05
92 *22:5 0.0002062676048
93 *22:7 0.0005582931283199999
94 *22:9 0.00243372799342
95 *22:1 0.00063506706336
96 *22:11 0
97 *22:8 0
*RES
117 input16:A *22:1 0.6071428571428571
118 *22:2 *22:3 1.2142857142857142
119 *22:3 *22:4 0.4107142857142857
120 *22:5 *22:6 2.0535714285714284
121 *22:7 *22:6 0.30357142857142855
122 *22:7 *22:8 5.339285714285714
123 *22:9 *22:10 27.77678571428571
124 *22:1 *22:11 6.571428571428571
125 input16:A input16:A 0
126 *22:11 *22:2 0
127 *22:5 *22:4 0
128 *22:8 *22:9 0
*END

*D_NET *23 0.0014754314374
*CONN
*P ext_trim[19] I
*I input17:A I
*CAP
98 *23:1 0.00020919182110000001
99 *23:3 0.0012662396163
100 input17:A 0
101 *23:2 0
*RES
129 *23:1 *23:2 2.276785714285714
130 *23:3 *23:4 2.2701000000000002
131 input17:A input17:A 0
132 input17:A *23:1 0
133 *23:2 *23:3 0
*END

*D_NET *24 0.00553665392738
*CONN
*P ext_trim[1] I
*I input18:A I
*CAP
102 *24:1 0.0005960852944
103 *24:3 0.0013744250542200003
104 *24:5 0.00024524937376
105 *24:6 0.003320894205
106 *24:2 0
107 input18:A 0
*RES
134 *24:1 *24:2 6.160714285714286
135 *24:3 *24:4 15.633928571428571
136 *24:5 input18:A 2.464285714285714
137 *24:6 *24:7 37.94642857142857
138 *24:2 *24:7 0
139 *24:1 *24:3 0
140 *24:5 *24:6 0
141 input18:A input18:A 0
*END

*D_NET *25 0.005960473546860001
*CONN
*P ext_trim[20] I
*I input19:A I
*CAP
108 input19:A 4.017137184e-05
109 *25:1 0.0002062676048
110 *25:3 0.0022351086923200003
111 *25:5 0.0027400825872000005
112 *25:7 0.0007388432907000001
113 *25:2 0
114 *25:6 0
*RES
142 input19:A *25:1 0.30357142857142855
143 *25:1 *25:2 2.0535714285714284
144 *25:3 *25:4 25.499999999999996
145 *25:5 *25:6 28.75
146 *25:7 *25:8 8.348214285714285
147 input19:A input19:A 0
148 *25:2 *25:3 0
149 *25:5 *25:4 0
150 *25:6 *25:7 0
*END

*D_NET *26 0.00358242696904
*CONN
*P ext_trim[21] I
*I input20:A I
*CAP
115 *26:1 0.00195704167078
116 input20:A 0.00063506706336
117 *26:4 0.0009903182348999999
118 *26:3 0
119 *26:2 0
*RES
151 *26:1 *26:2 22.312499999999996
152 input20:A *26:3 6.571428571428571
153 *26:4 *26:5 1.7656333333333334
154 input20:A input20:A 0
155 *26:3 *26:1 0
156 *26:2 *26:5 0
*END

*D_NET *27 0.0026490831382600002
*CONN
*P ext_trim[22] I
*I input21:A I
*CAP
120 *27:1 9.669826434000002e-05
121 input21:A 0.00063506706336
122 *27:5 0.0019173178105600002
123 *27:4 0
*RES
157 *27:1 *27:2 0.4107142857142857
158 *27:1 *27:3 0.45535714285714285
159 input21:A *27:4 6.571428571428571
160 *27:5 *27:2 21.857142857142854
161 *27:4 *27:3 0
162 input21:A input21:A 0
*END

*D_NET *28 0.00520144385168
*CONN
*P ext_trim[23] I
*I input22:A I
*CAP
124 *28:1 0.0005961448329
125 *28:3 0.00460529901878
126 *28:4 0
127 input22:A 0
*RES
163 *28:1 *28:2 1.0449666666666666
164 *28:3 *28:4 52.669642857142854
165 *28:4 *28:1 0
166 input22:A input22:A 0
167 input22:A *28:3 0
*END

*D_NET *29 0.00238076284646
*CONN
*P ext_trim[24] I
*I input23:A I
*CAP
128 *29:1 0.00238076284646
129 input23:A 0
*RES
168 *29:1 *29:2 27.169642857142854
169 input23:A input23:A 0
170 input23:A *29:2 0
*END

*D_NET *30 0.005290593981060001
*CONN
*P ext_trim[25] I
*I input24:A I
*CAP
130 *30:1 0.0015361040229000002
131 input24:A 8.932229792e-05
132 *30:5 0.0036651676602400007
133 *30:4 0
*RES
171 *30:1 *30:2 0.8214285714285714
172 *30:1 *30:3 16.544642857142858
173 input24:A *30:4 0.8214285714285714
174 *30:5 *30:2 41.89285714285714
175 *30:4 *30:5 0
176 input24:A input24:A 0
*END

*D_NET *31 0.006240912795260001
*CONN
*P ext_trim[2] I
*I input25:A I
*CAP
134 *31:1 4.017137184e-05
135 *31:2 0.00032321291168
136 *31:4 0.00064615428352
137 *31:6 0.0002062676048
138 *31:8 0.00071422020416
139 *31:10 9.002024044000002e-05
140 *31:12 0.0010638665219200002
141 *31:14 9.002024044000002e-05
142 *31:16 0.00071303060128
143 *31:18 0.0002753982548
144 *31:20 0.0008977387315800001
145 *31:22 0.0011808118288000001
146 *31:3 0
147 input25:A 0
148 *31:9 0
149 *31:13 0
150 *31:17 0
*RES
177 *31:1 *31:2 0.30357142857142855
178 *31:2 *31:3 3.2857142857142856
179 *31:4 *31:5 7.285714285714286
180 *31:6 *31:7 2.0535714285714284
181 *31:8 *31:7 0.30357142857142855
182 *31:8 *31:9 6.982142857142857
183 *31:10 *31:11 0.9107142857142857
184 *31:12 *31:13 11.089285714285714
185 *31:14 *31:15 0.9107142857142857
186 *31:16 *31:17 7.3928571428571415
187 *31:18 *31:19 3.035714285714285
188 *31:20 *31:21 10.169642857142856
189 *31:22 *31:1 12.321428571428571
190 *31:3 *31:4 0
191 input25:A input25:A 0
192 input25:A *31:5 0
193 *31:6 *31:21 0
194 *31:9 *31:10 0
195 *31:12 *31:11 0
196 *31:13 *31:14 0
197 *31:16 *31:15 0
198 *31:17 *31:18 0
199 *31:22 *31:19 0
*END

*D_NET *32 0.0017254832853599998
*CONN
*P ext_trim[3] I
*I input26:A I
*CAP
151 *32:1 0.00026215696806
152 *32:3 0.0014633263173
153 input26:A 0
154 *32:2 0
*RES
200 *32:1 *32:2 2.883928571428571
201 *32:3 *32:4 2.6304333333333334
202 input26:A input26:A 0
203 input26:A *32:1 0
204 *32:2 *32:3 0
*END

*D_NET *33 0.0018031937318000002
*CONN
*P ext_trim[4] I
*I input27:A I
*CAP
155 *33:1 0.0006858781437400002
156 input27:A 0.00024524937376
157 *33:4 0.0008720662143000001
158 *33:3 0
*RES
205 *33:1 *33:2 7.741071428571428
206 input27:A *33:3 2.464285714285714
207 *33:4 *33:5 1.5494333333333334
208 *33:1 *33:4 0
209 *33:3 *33:2 0
210 input27:A input27:A 0
*END

*D_NET *34 0.0024662098449200003
*CONN
*P ext_trim[5] I
*I input28:A I
*CAP
159 input28:A 5.034052896000001e-05
160 *34:2 0.0011890470398600002
161 *34:4 0.0012268222761
162 *34:1 0
163 *34:3 0
*RES
211 input28:A *34:1 0.4107142857142857
212 *34:2 *34:3 13.508928571428571
213 *34:4 *34:5 2.198033333333333
214 input28:A input28:A 0
215 *34:1 *34:2 0
216 *34:3 *34:4 0
*END

*D_NET *35 0.0076910277892
*CONN
*P ext_trim[6] I
*I input29:A I
*CAP
164 *35:1 0.0012268222761
165 *35:3 0.0023344757234
166 *35:5 0.0014538727746600001
167 *35:6 0.0017655383632
168 *35:8 0.00087014728
169 input29:A 4.017137184e-05
170 *35:10 0
*RES
217 *35:1 *35:2 2.198033333333333
218 *35:3 *35:4 0.4107142857142857
219 *35:5 *35:4 16.544642857142858
220 *35:6 *35:7 18.482142857142854
221 *35:8 *35:7 0.30357142857142855
222 *35:8 *35:9 8.625
223 input29:A *35:9 0.30357142857142855
224 *35:3 *35:10 26.107142857142854
225 *35:10 *35:2 0
226 *35:6 *35:5 0
227 input29:A input29:A 0
*END

*D_NET *36 0.00972046353274
*CONN
*P ext_trim[7] I
*I input30:A I
*CAP
171 *36:1 0.00223331959072
172 *36:2 0.00010327233643999999
173 *36:3 0.00012830406688
174 *36:4 0.0003621946806399999
175 *36:6 0.00155980306858
176 *36:8 0.005333569789480001
177 input30:A 0
178 *36:5 0
*RES
228 *36:1 *36:2 23.41071428571428
229 *36:2 *36:3 73.19999999999999
230 *36:3 input30:A 1.232142857142857
231 *36:4 *36:5 3.6964285714285707
232 *36:6 *36:7 17.75892857142857
233 *36:8 *36:9 61.01785714285714
234 *36:1 *36:8 0
235 *36:2 *36:2 0
236 *36:3 *36:3 0
237 input30:A input30:A 0
238 *36:5 *36:9 0
239 *36:4 *36:6 0
*END

*D_NET *37 0.0030801292154
*CONN
*P ext_trim[8] I
*I input31:A I
*CAP
179 *37:1 0.00055710352544
180 *37:2 0.0010691529153
181 *37:4 0.0014538727746600001
182 input31:A 0
183 *37:5 0
*RES
240 *37:1 input31:A 5.75
241 *37:2 *37:3 1.9097666666666666
242 *37:4 *37:5 16.544642857142858
243 *37:1 *37:4 0
244 input31:A input31:A 0
245 *37:5 *37:3 0
*END

*D_NET *38 0.0047796012428399995
*CONN
*P ext_trim[9] I
*I input32:A I
*CAP
184 *38:1 4.017137184e-05
185 *38:2 0.00028423114272
186 *38:4 0.00131489664442
187 *38:7 0.0009639451652800001
188 *38:8 0.0014633263173
189 input32:A 0.00071303060128
190 *38:3 0
*RES
246 *38:1 *38:2 0.30357142857142855
247 *38:2 *38:3 2.875
248 *38:4 *38:5 14.419642857142854
249 *38:4 *38:6 0.4107142857142857
250 *38:7 *38:6 10.928571428571427
251 *38:8 *38:9 2.6304333333333334
252 input32:A *38:1 7.3928571428571415
253 *38:3 *38:5 0
254 *38:7 *38:8 0
255 input32:A input32:A 0
*END

*D_NET *39 0.007886253257
*CONN
*P extclk_sel I
*I input33:A I
*CAP
191 *39:1 0.0014009076277000003
192 *39:3 0.00016728583584
193 *39:5 0.0011085702555
194 *39:7 8.932229792e-05
195 *39:9 0.00032440251456
196 *39:10 4.017137184e-05
197 *39:11 0.00032321291168
198 *39:13 0.0012599649696
199 *39:15 2.3813806740000006e-05
200 *39:17 0.0012859482864
201 *39:19 2.3813806740000006e-05
202 *39:21 0.00055710352544
203 *39:22 0.00128173604704
204 *39:2 0
205 *39:4 0
206 *39:14 0
207 input33:A 0
*RES
256 *39:1 *39:2 15.9375
257 *39:3 *39:4 1.6428571428571428
258 *39:5 *39:6 1.9818333333333336
259 *39:7 *39:8 0.8214285714285714
260 *39:9 *39:8 0.30357142857142855
261 *39:9 *39:10 2.875
262 *39:10 *39:11 0.30357142857142855
263 *39:11 *39:12 3.2857142857142856
264 *39:13 *39:12 0.30357142857142855
265 *39:13 *39:14 12.732142857142856
266 *39:15 *39:16 0.15178571428571427
267 *39:17 *39:18 2.3061333333333334
268 *39:19 *39:20 0.15178571428571427
269 *39:21 input33:A 5.75
270 *39:22 *39:23 14.571428571428571
271 *39:2 *39:6 0
272 *39:3 *39:1 0
273 *39:4 *39:23 0
274 *39:7 *39:22 0
275 *39:14 *39:16 0
276 *39:15 *39:17 0
277 *39:19 *39:18 0
278 *39:21 *39:20 0
279 input33:A input33:A 0
*END

*D_NET *40 0.0017149208646200001
*CONN
*P osc I
*I input34:A I
*CAP
208 *40:1 0.0008447735846200001
209 input34:A 4.017137184e-05
210 *40:3 0.00082997590816
211 *40:4 0
*RES
280 *40:1 *40:2 9.5625
281 input34:A *40:3 0.30357142857142855
282 *40:3 *40:4 8.625
283 *40:4 *40:1 0
284 input34:A input34:A 0
*END

*D_NET *41 0.008768384442139999
*CONN
*P reset I
*I input35:A I
*CAP
212 *41:1 0.0018824836700799999
213 *41:3 0.00024891568132000004
214 *41:5 0.00055710352544
215 *41:6 4.017137184e-05
216 *41:7 0.00024524937376
217 *41:9 0.00330765291826
218 *41:10 8.223124824000001e-05
219 *41:12 0.0009507038785400001
220 *41:11 0.0014538727746600001
221 *41:2 0
222 input35:A 0
223 *41:8 0
*RES
285 *41:1 *41:2 19.71428571428571
286 *41:3 *41:4 2.7321428571428568
287 *41:5 *41:6 5.75
288 *41:6 input35:A 0.30357142857142855
289 *41:7 *41:8 2.464285714285714
290 *41:9 *41:10 37.794642857142854
291 *41:10 *41:11 0.8214285714285714
292 *41:12 *41:13 10.776785714285714
293 *41:11 *41:14 16.544642857142858
294 *41:1 *41:14 0
295 *41:2 *41:3 0
296 *41:5 *41:4 0
297 input35:A input35:A 0
298 *41:7 *41:13 0
299 *41:8 *41:9 0
*END

*D_NET *42 0.0007362186727000002
*CONN
*P sel[0] I
*I input36:A I
*CAP
224 *42:1 0.0006858781437400002
225 *42:3 5.034052896000001e-05
226 input36:A 0
*RES
300 *42:1 *42:2 7.741071428571428
301 *42:3 input36:A 0.4107142857142857
302 *42:3 *42:2 0
303 input36:A input36:A 0
*END

*D_NET *43 0.00109002295838
*CONN
*P sel[1] I
*I input37:A I
*CAP
227 input37:A 0.00024524937376
228 *43:2 0.0008447735846200001
229 *43:1 0
*RES
304 input37:A *43:1 2.464285714285714
305 *43:2 *43:3 9.5625
306 input37:A input37:A 0
307 *43:1 *43:2 0
*END

*D_NET *44 0.0006858781437400002
*CONN
*P sel[2] I
*I input38:A I
*CAP
230 *44:1 0.0006858781437400002
231 input38:A 0
*RES
308 *44:1 *44:2 7.741071428571428
309 input38:A input38:A 0
310 input38:A *44:2 0
*END

*D_NET *45 0.00093432327364
*CONN
*I _380_:A1 I
*I _292_:B I
*I _290_:X O
*CAP
232 _290_:X 0.0005181217564799999
233 _380_:A1 0.00016728583584
234 *45:2 0.00024891568132000004
235 _292_:B 0
236 *45:1 0
*RES
311 _290_:X _292_:B 5.339285714285714
312 _380_:A1 *45:1 1.6428571428571428
313 *45:2 *45:3 2.7321428571428568
314 _290_:X _290_:X 0
315 _292_:B _292_:B 0
316 _380_:A1 _380_:A1 0
317 *45:1 *45:2 0
318 _290_:X *45:3 0
*END

*D_NET *46 0.00033675379672000005
*CONN
*I _376_:A0 I
*I _292_:X O
*CAP
237 *46:1 0.00016728583584
238 *46:2 0.00016946796088000002
239 _376_:A0 0
240 _292_:X 0
*RES
319 *46:1 _376_:A0 1.6428571428571428
320 *46:2 *46:3 1.8214285714285714
321 _376_:A0 _376_:A0 0
322 *46:1 *46:2 0
323 _292_:X _292_:X 0
324 _292_:X *46:3 0
*END

*D_NET *47 0.0015947920908400003
*CONN
*I _374_:A0 I
*I _307_:B1 I
*I _299_:Y O
*CAP
241 *47:1 9.002024044000002e-05
242 *47:3 0.0011808118288000001
243 _307_:B1 4.017137184e-05
244 *47:5 0.00016728583584
245 *47:2 0.00011650281392
246 _374_:A0 0
247 *47:4 0
248 _299_:Y 0
*RES
325 *47:1 *47:2 0.9107142857142857
326 *47:3 *47:4 12.321428571428571
327 _307_:B1 *47:3 0.30357142857142855
328 *47:5 _299_:Y 1.6428571428571428
329 *47:2 *47:6 1.2142857142857142
330 _374_:A0 _374_:A0 0
331 _374_:A0 *47:1 0
332 *47:4 *47:2 0
333 _307_:B1 _307_:B1 0
334 _299_:Y _299_:Y 0
335 *47:5 *47:6 0
*END

*D_NET *48 0.0019906428008800003
*CONN
*I _372_:A0 I
*I _307_:A3 I
*I _304_:B1 I
*I _297_:A I
*I _296_:X O
*CAP
249 _304_:B1 0.00032321291168
250 *48:2 0.00016946796088000002
251 _297_:A 0.00028423114272
252 *48:5 0.00023567439458000006
253 *48:6 4.640188412000001e-05
254 *48:8 2.3813806740000006e-05
255 _372_:A0 5.034052896000001e-05
256 *48:10 0.00022243310784000002
257 *48:9 0.00063506706336
258 *48:1 0
259 _296_:X 0
260 *48:4 0
261 *48:12 0
262 *48:13 0
263 _307_:A3 0
*RES
336 _304_:B1 *48:1 3.2857142857142856
337 *48:2 *48:3 1.8214285714285714
338 _297_:A *48:4 2.875
339 *48:5 *48:6 2.580357142857143
340 *48:6 *48:7 0.4107142857142857
341 *48:8 *48:7 0.15178571428571427
342 _372_:A0 *48:9 0.4107142857142857
343 *48:10 *48:11 2.4285714285714284
344 *48:9 _307_:A3 6.571428571428571
345 _304_:B1 _304_:B1 0
346 *48:1 *48:2 0
347 _296_:X _296_:X 0
348 _296_:X *48:3 0
349 _297_:A _297_:A 0
350 *48:4 *48:5 0
351 *48:12 *48:8 0
352 _372_:A0 _372_:A0 0
353 *48:9 *48:10 0
354 *48:13 *48:11 0
355 _307_:A3 _307_:A3 0
*END

*D_NET *49 0.00041323315212
*CONN
*I _370_:A0 I
*I _291_:X O
*CAP
264 _291_:X 0.00032321291168
265 *49:2 9.002024044000002e-05
266 *49:1 0
267 _370_:A0 0
*RES
356 _291_:X *49:1 3.2857142857142856
357 *49:2 *49:3 0.9107142857142857
358 _291_:X _291_:X 0
359 *49:1 *49:2 0
360 _370_:A0 _370_:A0 0
361 _370_:A0 *49:3 0
*END

*D_NET *50 0.0021813961333200004
*CONN
*I _368_:A0 I
*I _302_:Y O
*CAP
268 *50:1 0.00014298538739999998
269 *50:3 0.0020384107459200003
270 _368_:A0 0
271 _302_:Y 0
*RES
362 *50:1 *50:2 1.5178571428571426
363 *50:3 _368_:A0 21.357142857142858
364 _368_:A0 _368_:A0 0
365 *50:3 *50:1 0
366 _302_:Y _302_:Y 0
367 _302_:Y *50:2 0
*END

*D_NET *51 0.00027128945428
*CONN
*I _366_:A0 I
*I _304_:X O
*CAP
272 *51:1 0.00012830406688
273 *51:2 0.00014298538739999998
274 _304_:X 0
275 _366_:A0 0
*RES
368 *51:1 _304_:X 1.232142857142857
369 *51:2 *51:3 1.5178571428571426
370 _304_:X _304_:X 0
371 *51:1 *51:2 0
372 _366_:A0 _366_:A0 0
373 _366_:A0 *51:3 0
*END

*D_NET *52 0.00184048395756
*CONN
*I _364_:A0 I
*I _293_:X O
*CAP
276 *52:1 0.0006752384351999999
277 _364_:A0 0.00016728583584
278 *52:3 0.00090793944608
279 *52:4 9.002024044000002e-05
280 _293_:X 0
281 *52:6 0
*RES
374 *52:1 *52:2 0.30357142857142855
375 _364_:A0 *52:2 1.6428571428571428
376 *52:3 _293_:X 9.446428571428571
377 *52:4 *52:5 0.9107142857142857
378 *52:1 *52:6 6.571428571428571
379 _364_:A0 _364_:A0 0
380 _293_:X _293_:X 0
381 *52:3 *52:4 0
382 *52:6 *52:5 0
*END

*D_NET *53 0.0019335221415600003
*CONN
*I _362_:A0 I
*I _305_:X O
*CAP
282 *53:1 9.002024044000002e-05
283 *53:3 0.0018435019011200002
284 _362_:A0 0
285 _305_:X 0
*RES
383 *53:1 *53:2 0.9107142857142857
384 *53:3 _305_:X 19.303571428571427
385 *53:3 *53:1 0
386 _362_:A0 _362_:A0 0
387 _362_:A0 *53:2 0
388 _305_:X _305_:X 0
*END

*D_NET *54 0.00177912841564
*CONN
*I _360_:A0 I
*I _303_:X O
*CAP
286 *54:1 0.00019595053436
287 *54:3 0.00063506706336
288 *54:5 0.0009481108179199999
289 _360_:A0 0
290 _303_:X 0
*RES
389 *54:1 *54:2 2.1249999999999996
390 *54:3 *54:4 6.571428571428571
391 *54:5 *54:4 0.30357142857142855
392 *54:5 _303_:X 9.446428571428571
393 _360_:A0 _360_:A0 0
394 _360_:A0 *54:1 0
395 *54:3 *54:2 0
396 _303_:X _303_:X 0
*END

*D_NET *55 0.0036978308653600003
*CONN
*I _358_:A0 I
*I _301_:Y O
*CAP
291 *55:1 0.0010036690255000001
292 *55:3 0.0009706231891800002
293 *55:5 0.0004023660524799999
294 *55:8 0.0010248847529600001
295 *55:9 9.002024044000002e-05
296 _301_:Y 0.0002062676048
297 _358_:A0 0